 
data_shelx
 
_audit_creation_method            'SHELXL-2016/6'
_shelx_SHELXL_version_number      '2016/6'
_chemical_name_systematic
'Ammonium potassium magnesium trichloride hexahydrate'         
_chemical_name_common             'ammonium magnesium chloride hydrate'
_chemical_melting_point           ?
_chemical_formula_moiety          'H48 Mg4 O24 12(Cl), 2.792(N), 1.208(K), 11.20(H)'
_chemical_formula_sum
 'Cl12 H59.20 K1.21 Mg4 N2.79 O24' 
_chemical_formula_weight          1052.70

loop_
 _atom_type_symbol
 _atom_type_description
 _atom_type_scat_dispersion_real
 _atom_type_scat_dispersion_imag
 _atom_type_scat_source
 'N'  'N'   0.0061   0.0033
 'International Tables Vol C Tables 4.2.6.8 and 6.1.1.4'
 'O'  'O'   0.0106   0.0060
 'International Tables Vol C Tables 4.2.6.8 and 6.1.1.4'
 'Mg'  'Mg'   0.0486   0.0363
 'International Tables Vol C Tables 4.2.6.8 and 6.1.1.4'
 'Cl'  'Cl'   0.1484   0.1585
 'International Tables Vol C Tables 4.2.6.8 and 6.1.1.4'
 'K'  'K'   0.2009   0.2494
 'International Tables Vol C Tables 4.2.6.8 and 6.1.1.4'
 'H'  'H'   0.0000   0.0000
 'International Tables Vol C Tables 4.2.6.8 and 6.1.1.4'
 
_space_group_crystal_system       monoclinic
_space_group_IT_number            15
_space_group_name_H-M_alt         'C 2/c'
_space_group_name_Hall            '-C 2yc'
 
_shelx_space_group_comment
;
The symmetry employed for this shelxl refinement is uniquely defined
by the following loop, which should always be used as a source of
symmetry information in preference to the above space-group names.
They are only intended as comments.
;
 
loop_
 _space_group_symop_operation_xyz
 'x, y, z'
 '-x, y, -z+1/2'
 'x+1/2, y+1/2, z'
 '-x+1/2, y+1/2, -z+1/2'
 '-x, -y, -z'
 'x, -y, z-1/2'
 '-x+1/2, -y+1/2, -z'
 'x+1/2, -y+1/2, z-1/2'
 
_cell_length_a                    9.250(6)
_cell_length_b                    9.499(6)
_cell_length_c                    13.228(8)
_cell_angle_alpha                 90
_cell_angle_beta                  90.152(15)
_cell_angle_gamma                 90
_cell_volume                      1162.3(13)
_cell_formula_units_Z             1
_cell_measurement_temperature     296(2)
_cell_measurement_reflns_used     1582
_cell_measurement_theta_min       3.07
_cell_measurement_theta_max       27.12
 
_exptl_crystal_description        needle
_exptl_crystal_colour             white
_exptl_crystal_density_meas       ?
_exptl_crystal_density_method     'not measured'
_exptl_crystal_density_diffrn     1.504          
_exptl_crystal_F_000              546
_exptl_transmission_factor_min    ?
_exptl_transmission_factor_max    ?
_exptl_crystal_size_max           0.200
_exptl_crystal_size_mid           0.040
_exptl_crystal_size_min           0.030
_exptl_absorpt_coefficient_mu     0.941
_shelx_estimated_absorpt_T_min    0.834
_shelx_estimated_absorpt_T_max    0.972
_exptl_absorpt_correction_type    multi-scan
_exptl_absorpt_correction_T_min   0.789
_exptl_absorpt_correction_T_max   0.991
_exptl_absorpt_process_details    'SADABS, Bruker Analytical X-ray Systems'
_exptl_absorpt_special_details    ?
_diffrn_ambient_temperature       296(2)
_diffrn_radiation_wavelength      0.71073
_diffrn_radiation_type            MoK\a
_diffrn_source                    'sealed tube'
_diffrn_measurement_device_type   'Bruker APEX-II CCD'
_diffrn_measurement_method        '\f and \w scans'
_diffrn_detector_area_resol_mean  ?
_diffrn_reflns_number             10084
_diffrn_reflns_av_unetI/netI      0.0377
_diffrn_reflns_av_R_equivalents   0.0541
_diffrn_reflns_limit_h_min        -12
_diffrn_reflns_limit_h_max        12
_diffrn_reflns_limit_k_min        -12
_diffrn_reflns_limit_k_max        11
_diffrn_reflns_limit_l_min        -17
_diffrn_reflns_limit_l_max        17
_diffrn_reflns_theta_min          3.074
_diffrn_reflns_theta_max          28.883
_diffrn_reflns_theta_full         25.000
_diffrn_measured_fraction_theta_max   0.998
_diffrn_measured_fraction_theta_full  1.000
_diffrn_reflns_Laue_measured_fraction_max    0.998
_diffrn_reflns_Laue_measured_fraction_full   1.000
_diffrn_reflns_point_group_measured_fraction_max   0.998
_diffrn_reflns_point_group_measured_fraction_full  1.000
_reflns_number_total              1512
_reflns_number_gt                 1074
_reflns_threshold_expression      'I > 2\s(I)'
_reflns_Friedel_coverage          0.000
_reflns_Friedel_fraction_max      .
_reflns_Friedel_fraction_full     .
 
_reflns_special_details
;
 Reflections were merged by SHELXL according to the crystal
 class for the calculation of statistics and refinement.
 
 _reflns_Friedel_fraction is defined as the number of unique
 Friedel pairs measured divided by the number that would be
 possible theoretically, ignoring centric projections and
 systematic absences.
;
 
_computing_data_collection        'Bruker APEX2'
_computing_cell_refinement        'Bruker SAINT'
_computing_data_reduction         'Bruker SAINT'
_computing_structure_solution   'SHELXT 2014/5 (Sheldrick, 2014)'
_computing_structure_refinement 'SHELXL-2016/6 (Sheldrick, 2016)'
_computing_molecular_graphics     'DIAMOND (Brandenburg, 2006)'
_computing_publication_material   ?
_refine_special_details           ?
_refine_ls_structure_factor_coef  Fsqd
_refine_ls_matrix_type            full
_refine_ls_weighting_scheme       calc
_refine_ls_weighting_details
'w=1/[\s^2^(Fo^2^)+(0.0580P)^2^+0.4000P] where P=(Fo^2^+2Fc^2^)/3'
_atom_sites_solution_primary      direct
_atom_sites_solution_secondary    difmap
_atom_sites_solution_hydrogens    difmap
_refine_ls_hydrogen_treatment     refU
_refine_ls_extinction_method      none
_refine_ls_extinction_coef        .
_refine_ls_number_reflns          1512
_refine_ls_number_parameters      80
_refine_ls_number_restraints      0
_refine_ls_R_factor_all           0.0620
_refine_ls_R_factor_gt            0.0423
_refine_ls_wR_factor_ref          0.1234
_refine_ls_wR_factor_gt           0.1108
_refine_ls_goodness_of_fit_ref    1.069
_refine_ls_restrained_S_all       1.069
_refine_ls_shift/su_max           0.000
_refine_ls_shift/su_mean          0.000
 
loop_
 _atom_site_label
 _atom_site_type_symbol
 _atom_site_fract_x
 _atom_site_fract_y
 _atom_site_fract_z
 _atom_site_U_iso_or_equiv
 _atom_site_adp_type
 _atom_site_occupancy
 _atom_site_site_symmetry_order  
 _atom_site_calc_flag
 _atom_site_refinement_flags_posn
 _atom_site_refinement_flags_adp
 _atom_site_refinement_flags_occupancy
 _atom_site_disorder_assembly
 _atom_site_disorder_group
Cl1 Cl 0.500000 0.500000 0.500000 0.0449(3) Uani 1 2 d S . P . .
Cl2 Cl 0.75210(6) 0.73751(6) 0.74695(4) 0.0442(2) Uani 1 1 d . . . . .
Mg1 Mg 1.000000 0.500000 0.500000 0.0246(2) Uani 1 2 d S . P . .
K1 K 0.500000 0.49848(16) 0.750000 0.0531(9) Uani 0.302(8) 2 d S T P . .
N1 N 0.500000 0.49848(16) 0.750000 0.0531(9) Uani 0.698(8) 2 d S T P . .
O2 O 0.4090(2) 0.18748(18) 0.53789(14) 0.0442(4) Uani 1 1 d . . . . .
O3 O 0.9102(2) 0.5139(2) 0.35973(13) 0.0448(5) Uani 1 1 d . . . . .
O1 O 0.18062(19) 0.60149(19) 0.44890(14) 0.0451(4) Uani 1 1 d . . . . .
H1 H 0.438(3) 0.262(3) 0.523(2) 0.060(9) Uiso 1 1 d . . . . .
H2 H 0.875(3) 0.447(3) 0.334(2) 0.055(8) Uiso 1 1 d . . . . .
H3 H 0.876(3) 0.581(3) 0.339(2) 0.062(9) Uiso 1 1 d . . . . .
H4 H 0.261(4) 0.572(4) 0.467(2) 0.073(10) Uiso 1 1 d . . . . .
H5 H 0.187(3) 0.641(4) 0.402(2) 0.065(10) Uiso 1 1 d . . . . .
H6 H 0.352(3) 0.204(3) 0.585(3) 0.073(10) Uiso 1 1 d . . . . .
H7 H 0.433000 0.551001 0.755000 0.17(3) Uiso 0.7 1 d . U P . .
H8 H 0.493999 0.460000 0.710000 0.17(3) Uiso 0.7 1 d . U P . .
 
loop_
 _atom_site_aniso_label
 _atom_site_aniso_U_11
 _atom_site_aniso_U_22
 _atom_site_aniso_U_33
 _atom_site_aniso_U_23
 _atom_site_aniso_U_13
 _atom_site_aniso_U_12
Cl1 0.0397(4) 0.0347(4) 0.0603(6) 0.0097(3) -0.0016(4) -0.0014(3)
Cl2 0.0589(4) 0.0413(4) 0.0324(3) 0.0004(2) -0.0011(3) 0.0125(2)
Mg1 0.0277(5) 0.0231(5) 0.0229(5) 0.0016(3) -0.0017(3) -0.0005(3)
K1 0.0573(12) 0.0538(13) 0.0483(12) 0.000 -0.0014(7) 0.000
N1 0.0573(12) 0.0538(13) 0.0483(12) 0.000 -0.0014(7) 0.000
O2 0.0575(11) 0.0282(9) 0.0469(10) -0.0003(7) 0.0160(8) 0.0050(7)
O3 0.0642(12) 0.0360(10) 0.0341(9) 0.0012(7) -0.0196(8) 0.0007(8)
O1 0.0344(9) 0.0551(11) 0.0458(10) 0.0190(8) 0.0000(7) -0.0067(7)
 
_geom_special_details
;
 All esds (except the esd in the dihedral angle between two l.s. planes)
 are estimated using the full covariance matrix.  The cell esds are taken
 into account individually in the estimation of esds in distances, angles
 and torsion angles; correlations between esds in cell parameters are only
 used when they are defined by crystal symmetry.  An approximate (isotropic)
 treatment of cell esds is used for estimating esds involving l.s. planes.
;
 
loop_
 _geom_bond_atom_site_label_1
 _geom_bond_atom_site_label_2
 _geom_bond_distance
 _geom_bond_site_symmetry_2
 _geom_bond_publ_flag
Cl1 K1 3.307(2) . ?
Cl1 K1 3.307(2) 5_666 ?
Cl2 K1 3.2550(19) . ?
Cl2 K1 3.377(2) 3 ?
Mg1 O2 2.0331(19) 7_656 ?
Mg1 O2 2.0331(19) 3 ?
Mg1 O3 2.0351(19) 5_766 ?
Mg1 O3 2.0352(19) . ?
Mg1 O1 2.0454(19) 5_666 ?
Mg1 O1 2.0454(19) 1_655 ?
K1 H7 0.7985(10) . ?
K1 H8 0.6454(9) . ?
K1 H7 0.7985(10) 2_656 ?
K1 H8 0.6454(9) 2_656 ?
O2 H1 0.78(3) . ?
O2 H6 0.83(4) . ?
O3 H2 0.79(3) . ?
O3 H3 0.76(3) . ?
O1 H4 0.82(4) . ?
O1 H5 0.73(3) . ?
 
loop_
 _geom_angle_atom_site_label_1
 _geom_angle_atom_site_label_2
 _geom_angle_atom_site_label_3
 _geom_angle
 _geom_angle_site_symmetry_1
 _geom_angle_site_symmetry_3
 _geom_angle_publ_flag
K1 Cl1 K1 180.0 . 5_666 ?
K1 Cl2 K1 176.69(4) . 3 ?
O2 Mg1 O2 180.00(10) 7_656 3 ?
O2 Mg1 O3 89.99(8) 7_656 5_766 ?
O2 Mg1 O3 90.01(8) 3 5_766 ?
O2 Mg1 O3 90.01(8) 7_656 . ?
O2 Mg1 O3 89.99(8) 3 . ?
O3 Mg1 O3 180.0 5_766 . ?
O2 Mg1 O1 90.44(8) 7_656 5_666 ?
O2 Mg1 O1 89.56(8) 3 5_666 ?
O3 Mg1 O1 90.00(8) 5_766 5_666 ?
O3 Mg1 O1 90.00(8) . 5_666 ?
O2 Mg1 O1 89.56(8) 7_656 1_655 ?
O2 Mg1 O1 90.44(8) 3 1_655 ?
O3 Mg1 O1 90.00(8) 5_766 1_655 ?
O3 Mg1 O1 90.00(8) . 1_655 ?
O1 Mg1 O1 180.0 5_666 1_655 ?
Cl2 K1 Cl2 91.54(7) 2_656 . ?
Cl2 K1 Cl1 90.64(2) 2_656 . ?
Cl2 K1 Cl1 89.01(2) . . ?
Cl2 K1 Cl1 89.01(2) 2_656 2_656 ?
Cl2 K1 Cl1 90.65(2) . 2_656 ?
Cl1 K1 Cl1 179.50(5) . 2_656 ?
Cl2 K1 Cl2 91.47(5) 2_656 3_445 ?
Cl2 K1 Cl2 176.69(4) . 3_445 ?
Cl1 K1 Cl2 89.60(2) . 3_445 ?
Cl1 K1 Cl2 90.77(2) 2_656 3_445 ?
Cl2 K1 Cl2 176.69(4) 2_656 4_646 ?
Cl2 K1 Cl2 91.48(5) . 4_646 ?
Cl1 K1 Cl2 90.77(2) . 4_646 ?
Cl1 K1 Cl2 89.60(2) 2_656 4_646 ?
Cl2 K1 Cl2 85.54(7) 3_445 4_646 ?
Cl2 K1 H7 6.75(6) 2_656 . ?
Cl2 K1 H7 96.97(12) . . ?
Cl1 K1 H7 94.71(3) . . ?
Cl1 K1 H7 84.973(17) 2_656 . ?
Cl2 K1 H7 86.13(9) 3_445 . ?
Cl2 K1 H7 170.00(9) 4_646 . ?
Cl2 K1 H8 110.19(7) 2_656 . ?
Cl2 K1 H8 116.42(7) . . ?
Cl1 K1 H8 35.20(9) . . ?
Cl1 K1 H8 145.30(14) 2_656 . ?
Cl2 K1 H8 61.15(8) 3_445 . ?
Cl2 K1 H8 69.57(9) 4_646 . ?
H7 K1 H8 110.90(3) . . ?
Cl2 K1 H7 96.97(12) 2_656 2_656 ?
Cl2 K1 H7 6.74(6) . 2_656 ?
Cl1 K1 H7 84.976(17) . 2_656 ?
Cl1 K1 H7 94.71(3) 2_656 2_656 ?
Cl2 K1 H7 170.00(9) 3_445 2_656 ?
Cl2 K1 H7 86.13(9) 4_646 2_656 ?
H7 K1 H7 102.66(18) . 2_656 ?
H8 K1 H7 110.55(3) . 2_656 ?
Cl2 K1 H8 116.42(7) 2_656 2_656 ?
Cl2 K1 H8 110.20(7) . 2_656 ?
Cl1 K1 H8 145.30(14) . 2_656 ?
Cl1 K1 H8 35.20(9) 2_656 2_656 ?
Cl2 K1 H8 69.57(9) 3_445 2_656 ?
Cl2 K1 H8 61.16(8) 4_646 2_656 ?
H7 K1 H8 110.55(3) . 2_656 ?
H8 K1 H8 111.0(2) . 2_656 ?
H7 K1 H8 110.90(3) 2_656 2_656 ?
Mg1 O2 H1 126(2) 3_445 . ?
Mg1 O2 H6 128(2) 3_445 . ?
H1 O2 H6 104(3) . . ?
Mg1 O3 H2 120(2) . . ?
Mg1 O3 H3 123(2) . . ?
H2 O3 H3 111(3) . . ?
Mg1 O1 H4 119(2) 1_455 . ?
Mg1 O1 H5 126(2) 1_455 . ?
H4 O1 H5 110(3) . . ?
 
loop_
 _geom_hbond_atom_site_label_D 
 _geom_hbond_atom_site_label_H 
 _geom_hbond_atom_site_label_A 
 _geom_hbond_distance_DH 
 _geom_hbond_distance_HA 
 _geom_hbond_distance_DA 
 _geom_hbond_angle_DHA 
 _geom_hbond_site_symmetry_A 
O2 H1 Cl1  0.78(3) 2.36(3) 3.127(3) 171(3) .
O3 H2 Cl2  0.79(3) 2.38(3) 3.171(2) 173(3) 6_565
O3 H3 Cl2  0.76(3) 2.38(3) 3.132(2) 169(3) 7_666
O1 H4 Cl1  0.82(4) 2.36(4) 3.179(3) 173(3) .
O1 H5 Cl2  0.73(3) 2.43(3) 3.150(2) 170(3) 8_465
O2 H6 Cl2  0.83(4) 2.36(4) 3.162(2) 163(3) 3_445
N1 H8 Cl2  0.6454(9) 3.1174(15) 3.377(2) 108.40(8) 3_445
N1 H8 Cl1  0.6454(9) 2.8044(17) 3.307(2) 137.18(12) .
 
_refine_diff_density_max    0.483
_refine_diff_density_min   -0.274
_refine_diff_density_rms    0.067

_shelx_res_file
;

TITL novograblenovite in space group C 1 2/c 1
    shelx.res
    created by SHELXL-2016/6 at 13:06:01 on 26-Mar-2018
CELL  0.71073   9.250   9.499  13.228   90.000   90.152   90.000
ZERR  2   0.006   0.006   0.008    0.000    0.015    0.000
LATT   7
SYMM  - X,   Y, 1/2 - Z
SFAC  N    O    MG   CL  K  H
UNIT  2.79 24   4   12   1.21  59.20
MERG   2
FMAP   2
PLAN   20
ACTA 50
SIZE 0.20x0.04x0.03
BOND  $H
HTAB O2 Cl1
EQIV $1 x, -y+1, z-1/2
HTAB O3 Cl2_$1
EQIV $2 -x+3/2, -y+3/2, -z+1
HTAB O3 Cl2_$2
HTAB O1 Cl1
EQIV $3 x-1/2, -y+3/2, z-1/2
HTAB O1 Cl2_$3
EQIV $4 x-1/2, y-1/2, z
HTAB O2 Cl2_$4
HTAB N1 Cl2_$4
HTAB N1 Cl1
HTAB N1 Cl2
EADP K1 N1
EXYZ K1 N1
L.S. 6
TEMP    23.00
WGHT    0.058000    0.400000
FVAR       0.13940   0.30209   0.16844
CL1   4    0.500000    0.500000    0.500000    10.50000    0.03971    0.03474 =
         0.06030    0.00974   -0.00159   -0.00138
CL2   4    0.752100    0.737507    0.746945    11.00000    0.05887    0.04127 =
         0.03244    0.00041   -0.00112    0.01250
MG1   3    1.000000    0.500000    0.500000    10.50000    0.02768    0.02311 =
         0.02293    0.00158   -0.00169   -0.00048
K1    5    0.500000    0.498479    0.750000    20.50000    0.05735    0.05377 =
         0.04832    0.00000   -0.00141    0.00000
N1    1    0.500000    0.498479    0.750000   -20.50000    0.05735    0.05377 =
         0.04832    0.00000   -0.00141    0.00000
O2    2    0.408982    0.187478    0.537891    11.00000    0.05748    0.02825 =
         0.04686   -0.00031    0.01595    0.00501
O3    2    0.910202    0.513855    0.359731    11.00000    0.06420    0.03604 =
         0.03412    0.00119   -0.01964    0.00066
O1    2    0.180621    0.601495    0.448896    11.00000    0.03441    0.05513 =
         0.04579    0.01899   -0.00005   -0.00671
H1    6    0.438098    0.261599    0.523465    11.00000    0.06022
H2    6    0.874861    0.446524    0.334313    11.00000    0.05521
H3    6    0.876203    0.581258    0.339275    11.00000    0.06203
H4    6    0.260513    0.572308    0.467007    11.00000    0.07251
H5    6    0.186916    0.640833    0.401758    11.00000    0.06546
H6    6    0.352180    0.203546    0.584515    11.00000    0.07253
H7    6   10.433000   10.551001   10.755000    10.70000   31.00000
H8    6   10.493999   10.460000   10.710000    10.70000   31.00000
HKLF    4




REM  novograblenovite in space group C 1 2/c 1
REM R1 =  0.0423 for    1074 Fo > 4sig(Fo)  and  0.0620 for all    1512 data
REM     80 parameters refined using      0 restraints

END

WGHT      0.0582      0.4147

REM Highest difference peak  0.483,  deepest hole -0.274,  1-sigma level  0.067
Q1    1   0.8247  0.8120  0.7434  11.00000  0.05    0.48
Q2    1   0.6769  0.6583  0.7505  11.00000  0.05    0.46
Q3    1   0.6732  0.8169  0.7514  11.00000  0.05    0.40
Q4    1   0.4260  0.4297  0.4860  11.00000  0.05    0.37
Q5    1   0.8248  0.6617  0.7423  11.00000  0.05    0.34
Q6    1   0.9302  0.5760  0.5038  11.00000  0.05    0.33
Q7    1   0.4292  0.5674  0.4881  11.00000  0.05    0.31
Q8    1   0.4143  0.4012  0.7460  11.00000  0.05    0.27
Q9    1   0.9255  0.4283  0.4962  11.00000  0.05    0.25
Q10   1   0.9985  0.4202  0.3602  11.00000  0.05    0.22
Q11   1   0.4798  0.2031  0.5790  11.00000  0.05    0.21
Q12   1   0.9968  0.5987  0.3606  11.00000  0.05    0.21
Q13   1   0.6749  0.7880  0.6890  11.00000  0.05    0.20
Q14   1   0.3129  0.2946  0.5229  11.00000  0.05    0.19
Q15   1   1.0000  0.6540  0.2500  10.50000  0.05    0.19
Q16   1   0.3637  0.1209  0.5207  11.00000  0.05    0.18
Q17   1   0.4366  0.1495  0.6312  11.00000  0.05    0.18
Q18   1   0.1862  0.5004  0.3313  11.00000  0.05    0.18
Q19   1   0.5000  0.3582  0.7500  10.50000  0.05    0.17
Q20   1   0.0437  0.6467  0.3868  11.00000  0.05    0.16
;
_shelx_res_checksum   76532

_shelx_hkl_file
;
  -2   0   0   14.67    1.06
  -2   0   0   12.95    1.04
  -2   0   0   13.17    1.00
   4   0   0  254.36   16.95
   4   0   0  250.74   16.36
  -4   0   0  234.64   16.94
  -4   0   0  245.03   16.71
  -4   0   0  234.98   16.35
   6   0   0   -0.22    0.22
  -6   0   0    0.31    0.24
  -6   0   0   -0.10    0.17
   6   0   0    0.33    0.25
  -6   0   0   -0.04    0.20
   8   0   0   44.51    3.55
  -8   0   0   50.04    3.69
   8   0   0   49.97    3.75
  -8   0   0   49.42    3.55
  -8   0   0   50.75    3.67
 -10   0   0    6.78    1.02
 -10   0   0    7.86    0.95
  10   0   0    8.86    1.18
 -10   0   0    9.25    1.04
  10   0   0    6.33    0.97
 -12   0   0   16.03    1.63
 -12   0   0   13.20    1.69
 -12   0   0   19.92    1.63
  12   0   0   13.10    1.73
   1  -1   0   20.05    1.25
  -1  -1   0   15.89    1.27
  -1  -1   0   17.44    1.30
  -1  -1   0   15.99    1.23
   1  -1   0   20.39    1.29
  -1  -1   0   14.79    1.27
  -1   1   0   16.30    1.30
  -1   1   0   16.57    1.25
   1   1   0   14.44    1.28
   3  -1   0  161.78   11.74
  -3  -1   0  177.25   11.74
  -3  -1   0  172.73   11.60
  -3  -1   0  174.54   11.34
  -3   1   0  175.24   11.60
  -3   1   0  164.39   11.75
  -3   1   0  161.21   11.34
   3   1   0  164.88   11.74
   3   1   0  167.05   11.34
  -5  -1   0   27.55    2.11
  -5  -1   0   29.01    2.14
   5  -1   0   28.38    2.07
   5  -1   0   25.52    2.13
  -5  -1   0   27.97    2.05
  -5   1   0   26.00    2.05
   5   1   0   28.04    2.16
   5   1   0   28.75    2.08
  -5   1   0   30.50    2.15
  -5   1   0   30.37    2.15
   7  -1   0    8.56    1.03
  -7  -1   0    8.87    0.91
  -7  -1   0    8.96    0.93
   7  -1   0   10.07    1.01
  -7  -1   0    8.77    1.03
  -7   1   0   10.22    1.00
   7   1   0    7.87    1.02
   7   1   0   11.92    1.08
  -7   1   0   10.59    1.11
  -7   1   0    8.30    0.96
  -9  -1   0    1.89    0.45
  -9  -1   0    1.94    0.45
   9  -1   0    2.15    0.50
  -9  -1   0    1.94    0.56
   9  -1   0    1.17    0.50
   9   1   0    1.64    0.49
  -9   1   0    1.85    0.47
  -9   1   0    1.56    0.48
  -9   1   0    1.64    0.53
   9   1   0    1.98    0.57
 -11  -1   0    0.50    0.41
  11  -1   0    0.39    0.46
  11  -1   0    0.20    0.49
 -11  -1   0    0.43    0.40
 -11  -1   0    0.23    0.49
 -11   1   0    0.39    0.43
 -11   1   0    0.63    0.50
  11   1   0    0.71    0.57
 -11   1   0    1.07    0.48
   0  -2   0   48.88    3.43
   0  -2   0   49.99    3.59
   0  -2   0   53.82    3.56
   0  -2   0   44.78    4.32
   0  -2   0   51.77    3.44
   0  -2   0   51.95    3.67
   0   2   0   50.46    3.60
   2  -2   0  966.42   60.52
  -2  -2   0  859.73   60.47
  -2  -2   0  900.35   58.40
  -2  -2   0  809.78   58.39
   2  -2   0  913.69   58.42
  -2   2   0  865.93   58.43
  -2   2   0  862.61   60.53
   2   2   0  839.58   60.50
  -4  -2   0    4.29    0.56
  -4  -2   0    4.04    0.38
  -4  -2   0    3.41    0.37
  -4  -2   0    4.34    0.44
  -4  -2   0    3.03    0.41
   4   2   0    2.85    0.46
   4   2   0    4.24    0.48
  -6  -2   0  195.42   13.45
   6  -2   0  186.05   13.04
  -6  -2   0  192.73   13.00
  -6  -2   0  193.68   13.36
   6  -2   0  194.85   13.52
  -6   2   0  199.52   13.36
  -6   2   0  191.36   13.52
   6   2   0  188.40   13.04
  -6   2   0  200.71   13.06
   6   2   0  185.74   13.53
   8  -2   0    2.63    0.53
  -8  -2   0    1.35    0.49
  -8  -2   0    2.18    0.43
  -8  -2   0    2.65    0.45
   8  -2   0    2.54    0.56
  -8   2   0    2.92    0.61
  -8   2   0    2.43    0.49
   8   2   0    2.16    0.53
  -8   2   0    2.49    0.53
  10  -2   0   24.48    2.44
 -10  -2   0   28.60    2.42
  10  -2   0   24.94    2.25
 -10  -2   0   29.75    2.25
 -10  -2   0   29.09    2.21
 -10   2   0   31.62    2.43
  10   2   0   27.44    2.49
 -10   2   0   29.38    2.44
 -10   2   0   27.94    2.30
 -12  -2   0    1.39    0.50
 -12  -2   0    1.61    0.52
  12  -2   0    0.89    0.59
 -12  -2   0    1.31    0.65
  12  -2   0    0.07    0.54
 -12   2   0    1.11    0.59
 -12   2   0    1.02    0.62
 -12   2   0    2.50    0.69
  -1  -3   0   53.75    3.64
  -1  -3   0   53.97    3.89
  -1  -3   0   54.27    4.62
  -1  -3   0   47.51    3.61
  -1  -3   0   53.85    3.82
  -1  -3   0   47.41    3.85
  -1   3   0   61.07    3.84
  -1   3   0   63.73    3.70
   1   3   0   49.56    3.80
  -3  -3   0    7.20    0.57
   3  -3   0    8.83    0.66
  -3  -3   0    7.28    0.56
  -3  -3   0    6.51    0.76
  -3  -3   0    6.51    0.57
  -3  -3   0    6.85    0.58
   3  -3   0   10.28    0.73
  -3   3   0    8.36    0.70
  -3   3   0    7.14    0.73
   3   3   0    7.92    0.72
  -5  -3   0   10.42    0.83
  -5  -3   0    9.05    0.76
  -5  -3   0   13.00    1.06
  -5  -3   0    9.71    0.76
  -5  -3   0    9.81    0.83
   5  -3   0    9.14    0.87
   5  -3   0   11.49    1.06
  -5   3   0   10.87    1.04
   5   3   0   10.04    1.00
  -5   3   0   10.96    1.07
  -5   3   0    9.59    0.96
   5   3   0   11.55    1.01
  -5   3   0    9.60    0.93
  -7  -3   0    3.16    0.49
  -7  -3   0    3.94    0.50
   7  -3   0    3.86    0.65
  -7  -3   0    4.75    0.74
   7  -3   0    5.50    0.69
  -7   3   0    4.13    0.67
  -7   3   0    3.67    0.61
  -7   3   0    4.33    0.67
   7   3   0    4.47    0.71
   9  -3   0    0.12    0.37
  -9  -3   0    0.97    0.32
  -9  -3   0    0.53    0.42
   9  -3   0    0.46    0.35
  -9  -3   0    1.65    0.38
  -9   3   0    0.42    0.44
  -9   3   0    0.62    0.38
   9   3   0    0.35    0.45
  -9   3   0    1.53    0.51
  11  -3   0    1.15    0.61
 -11  -3   0    1.37    0.38
 -11  -3   0    1.03    0.53
 -11  -3   0    0.94    0.40
  11  -3   0    1.34    0.51
 -11   3   0    1.84    0.64
 -11   3   0    1.15    0.52
 -11   3   0    1.18    0.60
   0  -4   0  597.71   40.46
   0  -4   0  597.57   41.62
   0  -4   0  569.02   39.03
   0  -4   0  613.85   39.08
   0  -4   0  574.15   48.44
   0  -4   0  571.51   40.43
   0   4   0  579.66   40.50
  -2  -4   0   54.11    3.82
  -2  -4   0   58.34    4.95
   2  -4   0   54.81    3.88
  -2  -4   0   62.01    4.10
  -2  -4   0   58.15    4.11
   2  -4   0   54.62    4.02
   2  -4   0   55.13    4.11
  -2   4   0   58.48    4.09
  -2   4   0   55.66    3.93
   2   4   0   60.08    4.07
   4  -4   0  275.49   17.26
  -4  -4   0  213.44   16.52
  -4  -4   0  242.36   17.08
   4  -4   0  269.00   16.65
  -4  -4   0  240.70   16.54
   4   4   0  247.19   17.27
  -4   4   0  240.82   17.27
  -4   4   0  260.09   16.68
  -6  -4   0    0.75    0.39
  -6  -4   0    1.38    0.19
  -6  -4   0    1.57    0.27
   6  -4   0    1.19    0.40
  -6  -4   0    1.39    0.16
  -6  -4   0    1.15    0.18
   6  -4   0    0.51    0.29
   6   4   0    1.29    0.41
  -6   4   0    1.14    0.37
  -6   4   0    1.68    0.38
  -6   4   0    1.53    0.43
  -6   4   0    1.50    0.40
   8  -4   0   70.11    5.33
  -8  -4   0   70.51    5.33
   8  -4   0   66.96    5.11
  -8  -4   0   74.91    4.98
  -8   4   0   74.17    5.18
   8   4   0   71.10    5.40
  -8   4   0   72.07    5.32
  -8   4   0   76.07    5.38
 -10  -4   0    1.72    0.39
 -10  -4   0    1.78    0.65
  10  -4   0    2.89    0.70
  10  -4   0    1.75    0.54
 -10   4   0    2.52    0.72
 -10   4   0    2.60    0.63
 -10   4   0    3.35    0.72
   1  -5   0    1.58    0.30
  -1  -5   0    1.28    0.47
   1  -5   0    2.21    0.26
   1  -5   0    1.47    0.29
  -1  -5   0    1.06    0.33
   1  -5   0    1.72    0.27
  -1  -5   0    1.21    0.21
  -1  -5   0    1.83    0.34
  -1  -5   0    1.55    0.18
  -1   5   0    1.46    0.34
   1   5   0    1.40    0.31
  -1   5   0    1.87    0.35
  -3  -5   0   -0.06    0.26
   3  -5   0    0.74    0.24
  -3   5   0   -0.04    0.22
  -3   5   0    0.61    0.25
   3   5   0   -0.34    0.22
   5  -5   0   77.97    4.96
   5  -5   0   77.17    5.14
  -5  -5   0   64.89    5.16
   5   5   0   63.13    5.13
  -5   5   0   69.22    4.96
  -5   5   0   71.48    5.18
  -7  -5   0    4.71    0.37
   7  -5   0    3.08    0.63
   7  -5   0    5.02    0.78
  -7  -5   0    4.36    0.79
  -7   5   0    4.18    0.70
  -7   5   0    4.95    0.77
  -7   5   0    5.98    0.84
  -7   5   0    5.13    0.82
   9  -5   0   -0.04    0.32
  -9  -5   0   -0.14    0.40
   9  -5   0   -0.52    0.37
  -9   5   0    0.26    0.40
  -9   5   0    0.22    0.42
  -9   5   0   -0.31    0.34
 -11  -5   0   -0.68    0.44
  11  -5   0   -0.09    0.38
  11  -5   0   -0.20    0.48
 -11   5   0    0.80    0.55
 -11   5   0   -0.18    0.54
 -11   5   0   -0.03    0.53
   0  -6   0   23.71    2.48
   0  -6   0   26.11    1.88
   0  -6   0   26.94    1.85
   0  -6   0   26.72    1.93
   0  -6   0   26.47    1.86
   0  -6   0   24.91    1.81
   0   6   0   25.63    1.91
   0   6   0   26.02    2.00
   2  -6   0  307.10   22.05
   2  -6   0  320.15   21.49
  -2  -6   0  306.17   21.33
   2  -6   0  315.20   25.84
   2  -6   0  307.47   20.75
  -2  -6   0  296.20   25.83
  -2  -6   0  323.96   21.79
  -2   6   0  306.64   20.82
  -2   6   0  316.30   21.59
   2   6   0  300.47   21.53
  -4  -6   0   -0.04    0.30
   4  -6   0    0.23    0.27
   4  -6   0   -0.02    0.21
  -4   6   0    0.06    0.27
  -4   6   0    0.22    0.30
   4   6   0    0.02    0.28
  -6  -6   0   43.28    3.65
   6  -6   0   50.94    3.59
   6  -6   0   49.35    3.44
  -6   6   0   45.22    3.47
  -6   6   0   46.67    3.63
   8  -6   0    4.28    0.78
   8  -6   0    3.68    0.65
  -8  -6   0    4.67    0.92
  -8   6   0    4.97    0.86
  -8   6   0    5.57    0.94
  -8   6   0    4.57    0.79
  10  -6   0   15.43    1.71
  10  -6   0   14.34    1.57
 -10  -6   0   13.11    1.77
 -10   6   0   16.37    1.81
 -10   6   0   17.81    1.80
 -10   6   0   16.12    1.81
   1  -7   0    1.73    0.24
   1  -7   0    1.37    0.32
  -1  -7   0    1.01    0.50
   1  -7   0    1.57    0.32
   1  -7   0    1.60    0.27
   1  -7   0    1.08    0.53
   1  -7   0    1.57    0.28
  -1  -7   0    1.40    0.41
  -1   7   0    1.40    0.39
  -1   7   0    1.28    0.35
   1   7   0    1.87    0.39
   3  -7   0    3.47    0.39
   3  -7   0    2.88    0.48
   3  -7   0    3.45    0.47
  -3  -7   0    3.78    0.67
  -3  -7   0    3.67    0.81
   3  -7   0    4.04    0.84
  -3   7   0    2.89    0.59
   3   7   0    2.57    0.51
  -3   7   0    3.47    0.55
   5  -7   0    1.75    0.42
  -5  -7   0    2.99    0.68
   5  -7   0    3.49    0.57
  -5   7   0    2.07    0.52
  -5   7   0    2.12    0.57
   7  -7   0    3.39    0.63
  -7  -7   0    5.21    0.90
   7  -7   0    3.64    0.71
  -7   7   0    3.63    0.74
  -7   7   0    3.53    0.68
  -7   7   0    4.45    0.80
  -7   7   0    4.27    0.79
  -9  -7   0    0.17    0.51
   9  -7   0   -0.30    0.33
   9  -7   0    0.20    0.51
  -9   7   0   -0.20    0.47
  -9   7   0    0.62    0.59
  -9   7   0   -0.18    0.48
   0  -8   0   91.49    6.58
   0  -8   0   88.87    6.13
   0  -8   0   93.74    7.95
   0   8   0   90.99    6.53
  -2  -8   0    2.79    0.55
   2  -8   0    2.01    0.68
   2  -8   0    3.42    0.45
  -2  -8   0    2.21    0.70
   2  -8   0    2.78    0.42
  -2   8   0    2.94    0.57
   4  -8   0   68.74    5.14
   4  -8   0   68.32    4.96
  -4  -8   0   73.31    5.31
   4  -8   0   73.38    6.35
  -4   8   0   73.32    5.28
   6  -8   0    5.77    0.81
   6  -8   0    7.00    0.89
  -6  -8   0    5.83    1.04
  -6   8   0    7.26    0.95
  -6   8   0    5.29    0.92
   8  -8   0   21.43    1.82
   8  -8   0   22.11    1.76
  -8  -8   0   14.01    1.97
  -8   8   0   19.77    2.06
  -8   8   0   17.38    1.93
  -8   8   0   18.05    2.04
  -8   8   0   18.90    1.96
   1  -9   0    0.12    0.47
  -1  -9   0    0.43    0.41
  -1  -9   0    0.29    0.53
   1  -9   0    0.18    0.19
   3  -9   0    3.57    0.88
   3  -9   0    1.94    0.43
   3  -9   0    2.13    0.42
  -3   9   0    2.31    0.60
  -5  -9   0    0.85    0.52
   5  -9   0    0.95    0.42
   5  -9   0    0.35    0.58
   5  -9   0    0.64    0.36
  -5   9   0    0.45    0.49
   7  -9   0   -0.20    0.39
   7  -9   0    0.33    0.66
   7  -9   0   -0.16    0.39
  -7  -9   0   -0.43    0.57
  -7   9   0    1.33    0.58
   0 -10   0   17.14    1.55
   0 -10   0   17.10    2.24
   2 -10   0   34.62    3.59
   2 -10   0   33.27    2.53
  -2 -10   0   37.01    3.64
  -2 -10   0   41.64    2.90
   4 -10   0    0.98    0.70
   4 -10   0    0.58    0.33
   4 -10   0    0.23    0.30
  -4  10   0   -0.17    0.47
   6 -10   0   14.09    1.37
   6 -10   0   10.40    1.27
  -6 -10   0   13.74    1.71
   6 -10   0   16.71    2.11
  -6  10   0   16.24    1.73
   1 -11   0   -0.11    0.65
  -1 -11   0    1.08    0.72
   3 -11   0    1.59    0.34
   3 -11   0    1.54    0.84
   5 -11   0    0.98    0.42
   5 -11   0    0.28    0.32
   5 -11   0    1.02    0.74
   0 -12   0   15.22    2.20
  -2 -12   0    2.02    0.94
   2 -12   0    0.78    0.81
   4 -12   0    7.67    0.80
   4 -12   0    9.39    1.65
 -12   0   1   -0.32    0.42
  12   0  -1    0.31    0.55
 -12   0   1    0.42    0.51
 -12   0   1   -0.40    0.37
 -10   0   1    0.19    0.36
  10   0  -1    0.04    0.39
 -10   0   1    0.19    0.33
 -10   0   1    0.08    0.37
  10   0  -1   -0.54    0.39
  -8   0   1    0.30    0.32
  -8   0   1    0.12    0.28
   8   0  -1   -0.41    0.26
  -8   0   1   -0.16    0.24
   8   0  -1    0.04    0.31
   6   0  -1    0.14    0.25
  -6   0   1   -0.11    0.18
  -6   0   1   -0.07    0.20
   6   0  -1   -0.03    0.22
  -6   0   1    0.31    0.21
  -4   0   1   -0.05    0.17
   4   0  -1    0.06    0.16
  -4   0   1    0.10    0.17
   4   0  -1   -0.14    0.18
  -4   0   1   -0.21    0.17
  -2   0   1   -0.04    0.13
   2   0  -1   -0.04    0.13
   2   0  -1   -0.06    0.12
  -2   0   1    0.03    0.11
  -2   0   1    0.03    0.12
   0   0   1   -0.08    0.03
   0   0  -1    0.01    0.03
   0   0  -1   -0.06    0.03
   0   0  -1    0.01    0.05
   0   0  -1   -0.07    0.04
   2   0   1   -0.21    0.07
  -2   0  -1   -0.34    0.12
  -2   0  -1   -0.28    0.09
  -2   0  -1   -0.04    0.11
   2   0   1   -0.23    0.07
   2   0   1   -0.12    0.08
  -4   0  -1    0.17    0.17
   4   0   1    0.26    0.15
  -4   0  -1    0.10    0.15
   4   0   1    0.37    0.15
  -4   0  -1   -0.13    0.18
  -6   0  -1    0.21    0.20
   6   0   1   -0.07    0.19
   6   0   1    0.13    0.22
  -6   0  -1    0.03    0.23
  -6   0  -1   -0.35    0.18
  -8   0  -1    0.16    0.29
  -8   0  -1    0.04    0.25
   8   0   1    0.03    0.30
  -8   0  -1    0.40    0.33
   8   0   1    0.09    0.32
 -10   0  -1    0.08    0.32
 -10   0  -1   -0.10    0.35
 -10   0  -1    0.23    0.33
  10   0   1    0.38    0.46
  12   0   1   -0.50    0.51
 -12   0  -1    0.83    0.47
 -12   0  -1    0.14    0.40
 -12   0  -1    0.08    0.50
 -11  -1   1    0.44    0.41
 -11  -1   1   -0.14    0.42
  11  -1  -1   -0.52    0.42
  11  -1  -1   -0.19    0.44
 -11  -1   1    0.03    0.35
 -11   1   1   -0.24    0.37
 -11   1   1    0.09    0.41
  11   1  -1    0.21    0.49
 -11   1   1    0.53    0.43
  -9  -1   1    0.08    0.32
   9  -1  -1    0.00    0.31
  -9  -1   1    0.42    0.33
  -9  -1   1   -0.18    0.33
   9  -1  -1   -0.06    0.34
  -9   1   1    0.08    0.32
  -9   1   1    0.58    0.35
   9   1  -1   -0.11    0.39
   9   1  -1   -0.05    0.34
  -9   1   1   -0.15    0.32
  -7  -1   1   11.68    1.03
   7  -1  -1    8.91    1.01
  -7  -1   1   10.40    1.04
   7  -1  -1    7.53    1.05
  -7  -1   1   10.06    1.11
  -7   1   1   12.58    1.12
   7   1  -1    9.28    1.10
  -7   1   1   11.35    1.12
   7   1  -1   11.30    1.10
  -7   1   1   11.60    1.13
   5  -1  -1    3.16    0.49
  -5  -1   1    3.41    0.44
  -5  -1   1    1.92    0.40
   5  -1  -1    3.11    0.45
  -5  -1   1    3.36    0.46
   5   1  -1    3.33    0.46
  -5   1   1    2.97    0.44
  -5   1   1    3.14    0.46
  -5   1   1    3.45    0.50
   5   1  -1    2.66    0.47
   3  -1  -1   79.40    4.54
  -3  -1   1   68.89    4.63
  -3  -1   1   65.70    4.67
  -3  -1   1   65.43    4.52
  -3   1   1   65.57    4.68
   3   1  -1   57.20    4.67
   3   1  -1   61.19    4.52
  -3   1   1   66.29    4.51
  -3   1   1   66.45    4.61
  -1  -1   1    1.93    0.26
  -1  -1   1    1.60    0.21
   1  -1  -1    2.04    0.21
   1  -1  -1    2.46    0.23
  -1  -1   1    2.55    0.26
  -1  -1   1    1.95    0.22
  -1   1   1    1.72    0.19
   1   1  -1    1.52    0.22
  -1   1   1    1.56    0.20
   1   1  -1    1.72    0.25
   1  -1   1   -0.18    0.07
  -1  -1  -1   -0.10    0.12
   1  -1   1   -0.11    0.07
  -1  -1  -1   -0.30    0.11
  -1  -1  -1   -0.13    0.14
  -1   1  -1   -0.16    0.10
  -1   1  -1   -0.08    0.12
  -3  -1  -1   44.13    3.05
  -3  -1  -1   46.15    2.93
  -3  -1  -1   44.19    3.02
  -3  -1  -1   41.24    2.97
   3  -1   1   40.97    3.02
  -3  -1  -1   40.12    2.87
   3  -1   1   42.94    2.92
  -3   1  -1   44.70    2.95
   3   1   1   42.52    3.01
  -3   1  -1   40.83    3.05
  -3   1  -1   42.64    3.05
   5  -1   1    8.66    0.88
  -5  -1  -1    7.98    0.83
  -5  -1  -1    8.86    0.94
   5  -1   1    9.79    0.81
  -5  -1  -1   10.43    0.81
  -5   1  -1    9.25    0.82
   5   1   1    9.16    0.86
  -5   1  -1    9.80    0.95
   5   1   1    9.30    0.83
  -5   1  -1    9.88    0.92
  -7  -1  -1    4.85    0.61
  -7  -1  -1    5.50    0.74
   7  -1   1    5.59    0.73
   7  -1   1    3.78    0.62
  -7  -1  -1    5.25    0.61
  -7   1  -1    5.41    0.66
   7   1   1    4.29    0.63
  -7   1  -1    5.39    0.69
  -7   1  -1    5.01    0.75
   7   1   1    4.29    0.68
   9  -1   1    0.16    0.35
  -9  -1  -1    0.74    0.42
  -9  -1  -1    0.76    0.33
  -9  -1  -1    0.41    0.32
   9  -1   1    0.31    0.40
  -9   1  -1    0.64    0.40
  -9   1  -1    0.42    0.39
   9   1   1    0.43    0.47
  -9   1  -1    0.43    0.33
  11  -1   1   -0.53    0.42
 -11  -1  -1    0.07    0.35
 -11  -1  -1    0.12    0.45
 -11  -1  -1    0.03    0.34
 -11   1  -1   -0.30    0.37
 -11   1  -1    0.09    0.39
 -11   1  -1    0.12    0.44
  11   1   1    0.20    0.48
  12  -2  -1   -0.70    0.44
  12  -2  -1   -0.04    0.51
 -12  -2   1    0.04    0.44
 -12  -2   1    0.30    0.41
 -12  -2   1    0.57    0.54
 -12   2   1    0.88    0.54
 -12   2   1    0.73    0.54
 -12   2   1    0.12    0.48
  12   2  -1    0.01    0.67
  10  -2  -1   -0.51    0.28
  10  -2  -1   -0.21    0.37
 -10  -2   1   -0.26    0.33
 -10  -2   1   -0.25    0.36
 -10  -2   1    0.00    0.30
  10   2  -1    0.46    0.50
 -10   2   1    0.06    0.37
 -10   2   1    0.64    0.45
 -10   2   1    0.14    0.38
  -8  -2   1   -0.11    0.29
   8  -2  -1    0.33    0.35
   8  -2  -1    0.22    0.31
  -8  -2   1    0.69    0.31
  -8  -2   1    0.82    0.32
   8   2  -1   -0.04    0.32
  -8   2   1   -0.27    0.23
  -8   2   1    0.16    0.32
  -8   2   1    0.02    0.31
   8   2  -1    0.26    0.38
   6  -2  -1   12.55    1.17
  -6  -2   1   15.28    1.20
   6  -2  -1   13.90    1.36
  -6  -2   1   15.17    1.28
  -6  -2   1   13.50    1.15
  -6   2   1   14.38    1.19
  -6   2   1   12.93    1.22
  -6   2   1   12.91    1.21
   6   2  -1   13.50    1.28
   6   2  -1   15.73    1.26
  -4  -2   1   70.29    4.67
  -4  -2   1   70.92    4.53
   4  -2  -1   59.90    4.51
   4  -2  -1   58.94    4.68
  -4  -2   1   69.01    4.66
  -4   2   1   63.50    4.68
  -4   2   1   67.13    4.63
  -4   2   1   65.67    4.52
   4   2  -1   72.24    4.57
   4   2  -1   59.38    4.68
   2  -2  -1    0.35    0.16
  -2  -2   1    0.15    0.19
  -2  -2   1    0.08    0.13
  -2  -2   1   -0.06    0.23
   2  -2  -1    0.10    0.14
  -2  -2   1    0.28    0.14
   2   2  -1    0.28    0.19
  -2   2   1   -0.01    0.13
  -2   2   1    0.07    0.13
   2   2  -1    0.47    0.19
   0  -2   1   -0.05    0.08
   0  -2   1   -0.11    0.07
   0  -2  -1   -0.01    0.15
   0  -2  -1   -0.39    0.20
   0  -2  -1   -0.21    0.11
   0   2   1   -0.19    0.07
   0   2  -1   -0.32    0.13
   0   2  -1   -0.01    0.14
   2  -2   1    0.61    0.13
   2  -2   1    0.70    0.14
   2  -2   1    0.34    0.12
  -2  -2  -1    0.72    0.17
  -2  -2  -1    0.13    0.17
  -2  -2  -1    0.61    0.24
  -2   2  -1    0.60    0.19
  -2   2  -1    0.67    0.19
   2   2   1    0.56    0.10
   4  -2   1   33.72    2.18
  -4  -2  -1   27.97    2.11
  -4  -2  -1   26.87    2.06
  -4  -2  -1   27.83    2.22
   4  -2   1   34.01    2.10
  -4  -2  -1   27.33    2.00
  -4  -2  -1   28.55    2.06
  -4   2  -1   29.97    2.22
   4   2   1   28.65    2.17
  -4   2  -1   30.53    2.21
  -4   2  -1   31.10    2.21
  -4   2  -1   32.11    2.13
  -6  -2  -1   -0.04    0.10
   6  -2   1    0.64    0.25
  -6  -2  -1   -0.05    0.17
  -6  -2  -1    0.07    0.19
   6  -2   1    0.98    0.25
  -6  -2  -1   -0.04    0.10
  -6  -2  -1    0.10    0.25
  -6   2  -1    0.33    0.26
   6   2   1   -0.15    0.23
  -6   2  -1    0.34    0.23
   6   2   1    0.17    0.26
  -6   2  -1    0.03    0.22
   8  -2   1    5.10    0.76
  -8  -2  -1    5.62    0.89
  -8  -2  -1    6.58    0.73
  -8  -2  -1    7.99    0.74
   8  -2   1    4.75    0.81
  -8   2  -1    6.07    0.87
   8   2   1    7.34    0.96
  -8   2  -1    6.78    0.82
  -8   2  -1    6.71    0.85
 -10  -2  -1    0.84    0.53
 -10  -2  -1    1.53    0.41
  10  -2   1    0.88    0.46
 -10  -2  -1    1.68    0.41
  10  -2   1    0.83    0.52
 -10   2  -1    1.01    0.48
 -10   2  -1    1.48    0.52
  10   2   1    0.62    0.52
 -10   2  -1    2.03    0.62
  12  -2   1   -0.34    0.51
 -12  -2  -1    0.32    0.54
 -12  -2  -1   -0.05    0.37
 -12  -2  -1   -0.16    0.36
 -12   2  -1    0.07    0.54
 -12   2  -1    0.39    0.50
 -12   2  -1    0.16    0.48
 -11  -3   1   -0.02    0.44
 -11  -3   1    0.43    0.38
 -11  -3   1    0.25    0.37
  11  -3  -1   -0.03    0.43
  11  -3  -1   -0.20    0.37
 -11   3   1    1.00    0.55
 -11   3   1   -0.45    0.38
 -11   3   1    0.00    0.49
  11   3  -1    0.09    0.64
  -9  -3   1    0.77    0.36
  -9  -3   1    0.50    0.32
  -9  -3   1    0.76    0.47
   9  -3  -1    0.33    0.42
   9  -3  -1    0.29    0.34
   9   3  -1    0.69    0.51
  -9   3   1    0.67    0.43
  -9   3   1    0.77    0.41
  -9   3   1    0.74    0.45
  -7  -3   1    0.20    0.32
   7  -3  -1    0.11    0.32
  -7  -3   1    0.29    0.24
  -7  -3   1    0.56    0.26
   7  -3  -1    0.22    0.28
  -7   3   1    0.92    0.35
   7   3  -1    0.44    0.36
  -7   3   1    0.27    0.27
  -7   3   1    0.34    0.30
   7   3  -1    0.33    0.34
   5  -3  -1    0.05    0.21
  -5  -3   1    0.25    0.20
   5  -3  -1    0.34    0.25
  -5  -3   1    0.23    0.20
  -5  -3   1    0.43    0.27
  -5   3   1    0.17    0.22
   5   3  -1    0.23    0.28
   5   3  -1    0.07    0.26
  -5   3   1    0.44    0.23
  -5   3   1    0.14    0.23
   3  -3  -1    6.79    0.65
  -3  -3   1    6.52    0.57
  -3  -3   1    6.46    0.61
  -3  -3   1    5.68    0.72
  -3  -3   1    6.11    0.59
  -3  -3   1    6.75    0.59
   3  -3  -1    5.97    0.65
  -3   3   1    7.06    0.68
  -3   3   1    6.69    0.65
   3   3  -1    8.37    0.72
   3   3  -1    7.47    0.74
  -1  -3   1   88.34    6.45
   1  -3  -1   88.47    6.58
  -1  -3   1   87.82    6.36
  -1  -3   1   96.15    6.38
   1  -3  -1  103.07    7.71
  -1  -3   1   85.00    7.70
  -1  -3   1   93.24    6.15
  -1  -3   1   94.55    6.42
   1  -3  -1   88.99    6.17
   1  -3  -1   92.33    6.39
   1   3  -1   90.86    6.21
  -1   3   1   90.11    6.40
   1   3  -1   95.30    6.45
  -1  -3  -1   15.53    1.33
  -1  -3  -1   15.63    1.65
   1  -3   1   18.84    1.24
  -1  -3  -1   17.34    1.34
   1  -3   1   17.07    1.19
  -1  -3  -1   16.62    1.31
  -1   3  -1   17.35    1.28
  -1   3  -1   16.15    1.32
   3  -3   1    3.47    0.40
   3  -3   1    4.10    0.44
  -3  -3  -1    3.61    0.51
  -3   3  -1    3.33    0.46
   3   3   1    4.62    0.44
  -3   3  -1    3.58    0.45
   5  -3   1    2.35    0.38
  -5  -3  -1    2.27    0.29
  -5  -3  -1    3.28    0.54
  -5  -3  -1    2.25    0.22
   5  -3   1    1.77    0.37
  -5   3  -1    1.78    0.39
  -5   3  -1    2.44    0.47
  -5   3  -1    3.02    0.43
  -5   3  -1    2.21    0.42
   5   3   1    2.69    0.44
   7  -3   1    5.63    0.79
  -7  -3  -1    5.82    0.84
   7  -3   1    5.24    0.73
  -7  -3  -1    6.75    0.58
  -7  -3  -1    5.73    0.48
  -7  -3  -1    6.22    0.62
  -7   3  -1    5.06    0.75
   7   3   1    5.77    0.81
  -7   3  -1    6.28    0.83
  -7   3  -1    5.61    0.75
  -9  -3  -1    0.86    0.28
   9  -3   1    1.37    0.53
  -9  -3  -1    1.59    0.36
   9  -3   1    1.18    0.43
  -9  -3  -1    1.79    0.59
   9   3   1    0.33    0.46
  -9   3  -1    1.89    0.50
  -9   3  -1    1.46    0.54
  -9   3  -1    0.59    0.45
 -11  -3  -1    0.23    0.49
 -11  -3  -1   -0.25    0.29
  11  -3   1   -0.35    0.43
  11  -3   1   -0.44    0.38
 -11   3  -1    0.08    0.45
 -11   3  -1    0.24    0.43
 -11   3  -1    0.69    0.52
 -10  -4   1    0.14    0.46
  10  -4  -1    0.23    0.34
 -10  -4   1    1.10    0.32
  10  -4  -1    0.97    0.52
 -10  -4   1    0.85    0.35
 -10   4   1    1.36    0.56
 -10   4   1    0.96    0.49
 -10   4   1    0.89    0.52
  -8  -4   1    0.19    0.22
   8  -4  -1    0.37    0.31
   8  -4  -1    0.31    0.38
  -8  -4   1   -0.15    0.34
  -8  -4   1   -0.27    0.23
  -8   4   1   -0.26    0.32
  -8   4   1    0.68    0.39
   8   4  -1    0.92    0.54
  -8   4   1   -0.10    0.31
  -6  -4   1    4.74    0.48
  -6  -4   1    4.47    0.54
  -6  -4   1    3.70    0.67
   6  -4  -1    5.75    0.71
   6  -4  -1    4.84    0.63
  -6  -4   1    5.89    0.54
  -6   4   1    3.90    0.60
  -6   4   1    5.30    0.73
  -6   4   1    3.41    0.63
   6   4  -1    5.33    0.74
   6   4  -1    5.01    0.76
  -4  -4   1    2.40    0.30
   4  -4  -1    2.50    0.38
  -4  -4   1    2.36    0.29
  -4  -4   1    2.10    0.30
   4  -4  -1    1.97    0.38
  -4  -4   1    2.36    0.32
  -4  -4   1    2.92    0.51
  -4   4   1    2.37    0.43
   4   4  -1    2.62    0.50
   4   4  -1    3.37    0.47
  -4   4   1    1.83    0.35
  -2  -4   1    5.48    0.48
  -2  -4   1    6.19    0.57
  -2  -4   1    6.06    0.83
  -2  -4   1    6.37    0.71
  -2  -4   1    5.77    0.47
  -2  -4   1    5.56    0.54
   2   4  -1    6.19    0.66
   2   4  -1    6.79    0.64
   0  -4  -1   50.50    4.21
   0  -4   1   50.42    3.37
   0  -4   1   44.12    4.17
   0  -4  -1   46.12    3.24
   0  -4   1   49.41    3.26
   0  -4  -1   48.80    3.51
   0   4   1   47.66    3.42
   0   4  -1   48.98    3.48
   0   4  -1   47.14    3.34
  -2  -4  -1   56.84    4.32
   2  -4   1   59.42    4.21
   2  -4   1   60.42    4.06
  -2  -4  -1   61.66    4.28
   2  -4   1   56.55    4.06
  -2  -4  -1   62.01    4.34
  -2   4  -1   59.99    4.29
  -2   4  -1   60.35    4.13
   2   4   1   59.90    4.20
   4  -4   1    1.32    0.29
  -4  -4  -1    1.34    0.39
   4  -4   1    1.20    0.27
   4   4   1    1.48    0.32
  -4   4  -1    1.34    0.31
  -4   4  -1    0.99    0.31
   6  -4   1    4.91    0.62
  -6  -4  -1    4.85    0.74
   6  -4   1    3.68    0.60
  -6   4  -1    4.65    0.68
  -6   4  -1    4.38    0.69
  -6   4  -1    4.79    0.68
   6   4   1    3.37    0.61
  -6   4  -1    4.86    0.65
   8  -4   1    1.28    0.43
   8  -4   1    1.37    0.48
  -8  -4  -1    1.82    0.57
  -8  -4  -1    2.16    0.30
  -8   4  -1    1.90    0.53
  -8   4  -1    2.21    0.56
  -8   4  -1    1.28    0.45
  10  -4   1   -0.45    0.36
 -10  -4  -1    0.32    0.48
  10  -4   1   -0.10    0.46
 -10  -4  -1    0.11    0.20
 -10   4  -1    0.16    0.44
 -10   4  -1    0.19    0.40
 -10   4  -1    0.14    0.45
 -11  -5   1    0.16    0.26
  11  -5  -1   -0.29    0.45
 -11  -5   1    0.29    0.58
  11  -5  -1    0.06    0.41
 -11   5   1   -0.27    0.48
 -11   5   1    0.49    0.55
 -11   5   1    1.19    0.65
  -9  -5   1    0.26    0.25
   9  -5  -1    0.31    0.42
  -9  -5   1   -0.51    0.39
   9  -5  -1   -0.28    0.29
  -9   5   1    0.52    0.45
  -9   5   1    0.82    0.47
  -9   5   1    0.58    0.43
   7  -5  -1   -0.32    0.25
  -7  -5   1    0.04    0.36
  -7  -5   1   -0.03    0.18
   7  -5  -1   -0.03    0.32
  -7   5   1    0.22    0.33
  -7   5   1   -0.07    0.31
   7   5  -1    0.05    0.43
  -7   5   1   -0.14    0.31
  -5  -5   1    2.37    0.30
  -5  -5   1    1.01    0.46
   5  -5  -1    2.12    0.46
   5  -5  -1    2.78    0.47
  -5  -5   1    1.96    0.22
  -5  -5   1    1.87    0.27
  -5   5   1    2.46    0.49
   5   5  -1    1.51    0.47
  -5   5   1    1.87    0.41
  -3  -5   1    0.55    0.17
  -3  -5   1    0.42    0.15
   3  -5  -1    0.26    0.19
  -3  -5   1    0.60    0.32
   3  -5  -1    0.62    0.26
  -3  -5   1    0.40    0.10
  -3  -5   1    0.83    0.41
  -3  -5   1    0.53    0.13
  -3   5   1    0.39    0.24
   3   5  -1    0.69    0.28
  -3   5   1    0.55    0.24
   3   5  -1    0.23    0.24
  -1  -5   1    0.96    0.23
  -1  -5   1    0.68    0.13
  -1  -5   1    0.96    0.14
   1  -5  -1    1.12    0.22
   1  -5  -1    1.10    0.20
   1  -5  -1    1.03    0.19
   1  -5  -1    1.86    0.46
  -1  -5   1    1.04    0.43
   1  -5  -1    1.13    0.25
   1  -5  -1    0.80    0.21
  -1  -5   1    0.91    0.27
  -1  -5   1    0.62    0.21
   1   5  -1    0.84    0.27
   1   5  -1    0.85    0.27
  -1   5   1    1.16    0.28
  -1  -5  -1    1.38    0.46
  -1  -5  -1    1.22    0.25
   1  -5   1    1.64    0.25
   1  -5   1    1.27    0.20
  -1  -5  -1    1.26    0.35
  -1  -5  -1    1.50    0.37
   1  -5   1    1.35    0.22
  -1   5  -1    1.79    0.35
   1   5   1    1.65    0.27
  -1   5  -1    1.36    0.30
  -3  -5  -1    0.00    0.26
   3  -5   1   -0.16    0.15
   3  -5   1   -0.13    0.14
  -3  -5  -1    0.13    0.27
  -3   5  -1    0.21    0.24
  -3   5  -1    0.32    0.26
   3   5   1    0.24    0.21
   5  -5   1    2.17    0.40
   5  -5   1    2.82    0.49
  -5  -5  -1    1.64    0.51
  -5   5  -1    3.03    0.55
   5   5   1    2.24    0.46
  -5   5  -1    2.11    0.43
  -7  -5  -1    0.14    0.36
   7  -5   1    0.03    0.27
   7  -5   1    0.52    0.36
  -7   5  -1    0.18    0.34
  -7   5  -1    0.17    0.33
  -7   5  -1    0.33    0.39
  -7   5  -1    0.16    0.31
   9  -5   1    0.45    0.45
   9  -5   1    0.05    0.34
  -9  -5  -1   -0.01    0.42
  -9   5  -1    0.58    0.43
  -9   5  -1    0.87    0.50
  -9   5  -1   -0.43    0.38
  11  -5   1   -0.22    0.52
  11  -5   1   -0.64    0.36
 -11  -5  -1   -0.11    0.50
 -11   5  -1    0.49    0.56
 -11   5  -1   -0.32    0.52
 -11   5  -1   -0.16    0.47
  10  -6  -1    1.46    0.52
  10  -6  -1    0.79    0.53
 -10  -6   1    1.50    0.69
 -10   6   1    1.84    0.74
 -10   6   1    2.25    0.69
 -10   6   1    0.90    0.59
   8  -6  -1    1.66    0.44
   8  -6  -1    2.17    0.54
  -8  -6   1    0.52    0.51
  -8   6   1    0.74    0.44
  -8   6   1    1.06    0.54
  -8   6   1    0.89    0.48
   6  -6  -1    1.54    0.47
   6  -6  -1    1.72    0.44
  -6  -6   1    1.70    0.53
  -6  -6   1    1.54    0.20
  -6   6   1    2.45    0.49
   6   6  -1    1.81    0.55
  -6   6   1    1.54    0.46
   4  -6  -1   10.60    0.87
  -4  -6   1    8.04    0.70
   4  -6  -1    9.75    0.96
  -4  -6   1    9.58    0.68
  -4  -6   1    8.11    1.06
  -4   6   1    9.86    1.04
  -4   6   1   11.33    1.04
   4   6  -1    9.57    1.03
   2  -6  -1   -0.02    0.22
   2  -6  -1    0.56    0.33
   2  -6  -1    0.70    0.22
   2  -6  -1    0.42    0.19
  -2  -6   1    0.19    0.25
   2  -6  -1    0.22    0.21
  -2  -6   1   -0.19    0.31
   2  -6  -1    0.41    0.21
  -2  -6   1    0.00    0.28
  -2  -6   1    0.46    0.18
  -2  -6   1    0.10    0.09
   2   6  -1    0.15    0.26
  -2   6   1    0.32    0.23
  -2   6   1   -0.07    0.21
   2   6  -1    0.35    0.26
   0  -6   1   12.52    0.96
   0  -6   1   12.39    1.02
   0  -6  -1   12.20    1.01
   0  -6   1   14.55    1.56
   0  -6   1   11.64    1.05
   0  -6   1   12.25    0.91
   0  -6  -1   12.24    1.47
   0  -6   1   12.46    0.91
   0   6  -1   12.11    1.17
   0   6   1   11.40    1.05
   0   6  -1   12.66    1.05
  -2  -6  -1   59.09    4.07
   2  -6   1   52.69    3.94
   2  -6   1   50.48    3.79
  -2  -6  -1   59.39    4.10
  -2  -6  -1   51.90    4.91
  -2   6  -1   58.27    4.08
  -2   6  -1   57.08    3.91
   2   6   1   55.79    3.97
   4  -6   1    5.00    0.61
  -4  -6  -1    4.64    0.77
   4  -6   1    5.42    0.67
   4   6   1    4.35    0.64
  -4   6  -1    5.67    0.72
  -4   6  -1    5.44    0.73
   6  -6   1    2.79    0.52
   6  -6   1    2.70    0.56
  -6  -6  -1    2.51    0.62
  -6   6  -1    3.41    0.61
  -6   6  -1    2.18    0.54
   8  -6   1    3.33    0.68
  -8  -6  -1    1.31    0.59
   8  -6   1    3.11    0.63
  -8   6  -1    3.73    0.71
  -8   6  -1    3.20    0.75
  -8   6  -1    2.13    0.66
  10  -6   1   -0.04    0.47
 -10  -6  -1    0.03    0.53
  10  -6   1    0.35    0.40
 -10   6  -1   -0.41    0.44
 -10   6  -1   -0.01    0.51
 -10   6  -1    0.08    0.50
   9  -7  -1    1.45    0.55
  -9  -7   1    1.93    0.71
   9  -7  -1    2.39    0.59
  -9   7   1    3.03    0.81
  -9   7   1    3.78    0.78
  -9   7   1    3.45    0.82
   7  -7  -1    0.16    0.32
  -7  -7   1    1.25    0.58
   7  -7  -1    0.38    0.42
  -7   7   1    0.39    0.45
  -7   7   1    1.36    0.50
  -7   7   1    0.25    0.44
  -7   7   1    0.05    0.40
   5  -7  -1    0.65    0.49
   5  -7  -1   -0.13    0.28
  -5  -7   1   -0.26    0.34
   5  -7  -1    0.11    0.32
   5  -7  -1    0.49    0.31
  -5   7   1    0.20    0.35
  -5   7   1    1.11    0.41
   3  -7  -1    4.50    0.57
   3  -7  -1    3.92    0.85
   3  -7  -1    4.82    0.54
  -3  -7   1    3.22    0.66
   3  -7  -1    4.57    0.56
  -3  -7   1    3.74    0.82
   3   7  -1    4.65    0.68
  -3   7   1    4.65    0.65
  -3   7   1    5.04    0.69
  -1  -7   1    7.70    0.73
  -1  -7   1    8.68    1.28
   1  -7  -1    8.95    0.76
   1  -7  -1    7.83    0.70
  -1  -7   1   10.47    0.71
  -1  -7   1    9.69    0.78
  -1  -7   1    9.98    0.90
   1  -7  -1    9.80    0.80
   1  -7  -1    9.48    1.32
   1   7  -1   10.50    1.01
   1   7  -1    9.02    0.93
  -1   7   1    9.89    0.97
   1  -7   1   12.53    1.55
   1  -7   1   12.31    0.98
  -1  -7  -1   11.73    1.10
  -1  -7  -1   12.15    1.55
   1  -7   1   10.53    0.91
   1  -7   1   11.72    1.03
  -1  -7  -1   12.64    0.99
  -1   7  -1   12.47    1.16
  -1   7  -1   12.14    1.19
   1   7   1   10.35    1.04
   3  -7   1    5.30    0.64
  -3  -7  -1    5.74    0.76
  -3  -7  -1    3.92    0.70
   3  -7   1    5.29    0.61
  -3   7  -1    3.95    0.68
  -3   7  -1    5.41    0.71
  -5  -7  -1    0.05    0.40
   5  -7   1    0.25    0.30
   5  -7   1   -0.17    0.28
  -5   7  -1   -0.08    0.32
  -5   7  -1    0.36    0.37
   7  -7   1    0.44    0.36
   7  -7   1    0.50    0.44
  -7  -7  -1    0.80    0.53
  -7   7  -1    0.12    0.38
  -7   7  -1    0.38    0.43
  -7   7  -1    0.34    0.40
   9  -7   1    0.22    0.49
   9  -7   1    0.23    0.41
  -9  -7  -1    0.28    0.57
  -9   7  -1   -0.13    0.45
  -9   7  -1    0.18    0.56
  -9   7  -1    0.75    0.61
   8  -8  -1    1.72    0.52
   8  -8  -1    1.51    0.52
  -8  -8   1    1.50    0.71
   8  -8  -1    2.48    0.84
  -8   8   1    2.90    0.68
  -8   8   1    2.40    0.71
  -8   8   1    1.94    0.72
   6  -8  -1    5.04    0.80
   6  -8  -1    6.44    0.83
   6  -8  -1    8.43    1.34
  -6  -8   1    5.47    1.01
  -6   8   1    8.51    1.08
   4  -8  -1    6.70    1.17
  -4  -8   1    7.22    1.01
   4  -8  -1    6.72    0.78
   4  -8  -1    7.18    0.77
  -4   8   1    6.02    0.89
   2  -8  -1   12.27    1.66
  -2  -8   1   13.89    1.19
  -2  -8   1   11.29    1.61
   2  -8  -1   12.28    1.00
  -2   8   1   14.59    1.36
   2   8  -1   12.77    1.29
   0  -8   1   11.29    1.00
   0  -8   1    9.03    0.88
   0  -8   1   10.15    1.46
   0  -8   1   10.95    0.85
   0  -8  -1   10.48    0.89
   0  -8   1   11.05    0.83
   0  -8  -1    8.68    1.40
   0   8  -1    9.92    1.11
   2  -8   1    0.23    0.23
  -2  -8  -1    0.38    0.49
   2  -8   1    0.47    0.27
   2  -8   1    0.26    0.45
  -2  -8  -1    0.97    0.44
  -2   8  -1   -0.05    0.34
  -4  -8  -1    2.35    0.64
   4  -8   1    2.25    0.46
   4  -8   1    1.99    0.50
  -4   8  -1    2.41    0.56
  -4   8  -1    2.81    0.63
   6  -8   1    3.63    0.67
  -6  -8  -1    5.43    0.97
   6  -8   1    4.38    0.75
  -6   8  -1    7.07    0.94
  -6   8  -1    4.58    0.85
   8  -8   1    1.80    0.58
  -8  -8  -1    1.13    0.73
   8  -8   1    1.70    0.55
  -8   8  -1    1.26    0.67
  -8   8  -1    1.61    0.72
  -8   8  -1    1.25    0.60
  -8   8  -1    1.61    0.60
  -7  -9   1   -0.42    0.53
   7  -9  -1    0.79    0.41
   7  -9  -1    1.42    0.67
   7  -9  -1    0.42    0.39
  -7   9   1    0.29    0.49
  -5  -9   1    1.27    0.55
   5  -9  -1    0.12    0.54
   5  -9  -1    0.97    0.38
   5  -9  -1    0.59    0.33
  -5   9   1    1.23    0.56
   3  -9  -1    3.72    0.91
  -3  -9   1    0.91    0.64
   3  -9  -1    2.11    0.35
   3  -9  -1    1.56    0.34
  -3   9   1    3.14    0.61
   1  -9  -1    0.23    0.51
  -1  -9   1    0.26    0.40
  -1  -9   1    0.91    0.58
  -1  -9  -1    0.50    0.41
   1  -9   1    0.35    0.23
   1  -9   1    0.67    0.25
   1  -9   1    0.26    0.55
  -1  -9  -1    1.55    0.66
  -1   9  -1    0.42    0.39
   3  -9   1   -0.37    0.49
   3  -9   1    0.23    0.31
   3  -9   1   -0.08    0.26
  -3  -9  -1   -1.06    0.37
  -3   9  -1    0.17    0.44
  -5  -9  -1    2.07    0.69
   5  -9   1    2.57    0.55
   5  -9   1    2.80    0.58
   5  -9   1    2.86    0.90
  -5   9  -1    3.36    0.75
   7  -9   1    0.72    0.44
   7  -9   1    0.26    0.45
  -7  -9  -1    0.80    0.67
  -7   9  -1    0.08    0.53
   6 -10  -1    0.40    0.36
  -6 -10   1   -0.11    0.52
   6 -10  -1    0.72    0.41
   6 -10  -1    0.27    0.70
  -6  10   1    0.87    0.57
   4 -10  -1    4.94    1.19
   4 -10  -1    4.50    0.59
   4 -10  -1    4.62    0.57
   2 -10  -1    9.97    1.52
  -2 -10   1    7.22    1.36
   0 -10  -1    0.96    0.67
   0 -10   1    2.56    0.89
   0 -10  -1    2.42    0.60
  -2 -10  -1    4.04    1.03
  -2 -10  -1    4.50    0.80
   2 -10   1    4.04    1.02
   2 -10   1    3.86    0.56
   2 -10   1    5.23    0.56
   4 -10   1    5.16    0.73
   4 -10   1    5.37    1.17
   4 -10   1    4.42    0.69
  -4  10  -1    6.29    0.99
   6 -10   1    0.87    0.47
  -6 -10  -1    1.33    0.68
   6 -10   1    1.99    0.95
   6 -10   1    1.49    0.53
  -6  10  -1    2.34    0.72
   5 -11  -1    0.07    0.32
   5 -11  -1    0.05    0.69
  -3 -11   1    2.80    0.93
   3 -11  -1    1.24    0.76
   1 -11  -1   -0.14    0.54
  -1 -11   1   -0.39    0.54
   1 -11  -1    0.62    0.66
  -1 -11  -1    0.67    0.57
  -1 -11  -1    0.23    0.66
   1 -11   1    0.29    0.68
   3 -11   1   -0.24    0.27
   3 -11   1    0.19    0.68
   5 -11   1    0.92    0.79
   5 -11   1   -0.21    0.37
   5 -11   1   -0.21    0.35
  -5  11  -1    0.36    0.59
   4 -12  -1   -0.13    0.74
   2 -12  -1    4.02    1.19
  -2 -12   1    7.03    1.38
   0 -12  -1    3.20    1.03
   0 -12   1    1.25    0.88
   2 -12   1    0.96    0.87
   4 -12   1    4.56    1.26
   4 -12   1    3.75    0.56
 -12   0   2    0.22    0.51
 -12   0   2    0.15    0.48
 -12   0   2    0.07    0.44
  12   0  -2    0.18    0.54
  10   0  -2   28.60    2.36
 -10   0   2   27.76    2.27
 -10   0   2   28.57    2.32
 -10   0   2   29.03    2.35
  10   0  -2   24.76    2.42
   8   0  -2    5.48    0.80
  -8   0   2    4.48    0.70
  -8   0   2    5.28    0.74
  -8   0   2    6.20    0.77
   8   0  -2    4.91    0.76
  -6   0   2   80.95    5.76
  -6   0   2   82.31    5.65
   6   0  -2   81.86    5.68
   6   0  -2   75.07    5.86
  -6   0   2   86.96    5.86
  -4   0   2    0.96    0.27
  -4   0   2    0.82    0.24
   4   0  -2    0.82    0.26
  -4   0   2    1.18    0.30
   4   0  -2    1.64    0.33
  -2   0   2  414.75   27.01
   2   0  -2  399.42   27.02
  -2   0   2  422.68   27.51
   2   0  -2  376.63   27.98
  -2   0   2  406.77   27.97
   0   0  -2   17.43    1.32
   0   0  -2   18.13    1.36
   0   0  -2   17.88    1.36
   0   0   2   18.17    1.36
   0   0  -2   16.30    1.42
  -2   0  -2  389.71   26.53
  -2   0  -2  392.23   27.48
  -2   0  -2  412.85   27.09
  -2   0  -2  387.51   28.29
   2   0   2  392.33   27.46
   2   0   2  416.65   26.52
  -2   0  -2  392.19   27.46
   4   0   2  117.07    8.38
   4   0   2  121.76    8.11
  -4   0  -2  119.93    8.42
  -4   0  -2  121.44    8.37
  -4   0  -2  122.17    8.13
  -6   0  -2  162.32   10.76
  -6   0  -2  157.86   11.06
   6   0   2  157.73   11.14
  -6   0  -2  159.37   11.14
   6   0   2  157.63   10.76
   8   0   2   -0.15    0.28
  -8   0  -2    0.37    0.34
   8   0   2   -0.03    0.28
  -8   0  -2    0.06    0.24
  -8   0  -2   -0.03    0.26
 -10   0  -2   20.40    1.66
  10   0   2   17.48    1.88
 -10   0  -2   17.59    1.64
 -10   0  -2   21.05    1.85
  12   0   2    1.76    0.68
 -12   0  -2    1.27    0.63
 -12   0  -2    0.98    0.48
 -12   0  -2    1.34    0.52
 -11  -1   2    0.40    0.40
  11  -1  -2    0.99    0.57
 -11  -1   2    1.01    0.47
 -11  -1   2    1.61    0.58
  11  -1  -2    0.70    0.52
 -11   1   2    0.83    0.46
 -11   1   2    0.97    0.50
  11   1  -2   -0.54    0.48
 -11   1   2    1.13    0.50
   9  -1  -2   -0.43    0.32
  -9  -1   2   -0.26    0.31
   9  -1  -2   -0.46    0.30
  -9  -1   2   -0.15    0.29
  -9  -1   2    0.09    0.32
  -9   1   2   -0.06    0.32
  -9   1   2   -0.16    0.31
   9   1  -2    0.41    0.46
  -9   1   2   -0.33    0.28
   9   1  -2    0.18    0.39
  -7  -1   2    2.82    0.53
  -7  -1   2    2.15    0.45
   7  -1  -2    2.12    0.44
  -7  -1   2    1.31    0.38
   7  -1  -2    1.46    0.42
   7   1  -2    3.10    0.55
   7   1  -2    1.13    0.42
  -7   1   2    3.10    0.52
  -7   1   2    3.59    0.54
  -7   1   2    2.83    0.50
   5  -1  -2   23.38    1.75
  -5  -1   2   24.97    1.81
  -5  -1   2   20.34    1.79
  -5  -1   2   23.04    1.74
   5  -1  -2   23.55    1.83
   5   1  -2   24.04    1.80
  -5   1   2   23.37    1.82
   5   1  -2   22.51    1.84
  -5   1   2   21.62    1.77
  -5   1   2   23.92    1.75
  -3  -1   2   17.75    1.48
  -3  -1   2   17.27    1.44
   3  -1  -2   20.56    1.43
  -3  -1   2   18.72    1.43
   3  -1  -2   21.44    1.49
  -3   1   2   18.18    1.46
  -3   1   2   18.70    1.41
  -3   1   2   18.97    1.40
   3   1  -2   17.89    1.44
   3   1  -2   18.05    1.52
   1  -1  -2   31.40    2.36
  -1  -1   2   31.41    2.35
  -1  -1   2   31.66    2.40
  -1  -1   2   29.50    2.31
   1  -1  -2   40.28    2.31
   1   1  -2   32.30    2.34
  -1   1   2   32.38    2.36
   1   1  -2   32.37    2.43
  -1   1   2   33.45    2.28
  -1  -1  -2   32.14    2.51
   1  -1   2   33.92    2.32
  -1  -1  -2   30.37    2.46
  -1  -1  -2   33.21    2.39
   1  -1   2   33.47    2.40
  -1   1  -2   36.81    2.47
  -1   1  -2   32.15    2.43
  -1   1  -2   34.09    2.34
  -3  -1  -2   60.46    4.27
  -3  -1  -2   59.59    4.31
  -3  -1  -2   57.85    4.25
  -3  -1  -2   56.80    4.11
  -3  -1  -2   61.86    4.45
   3  -1   2   66.66    4.15
   3  -1   2   67.52    4.29
  -3  -1  -2   59.55    4.14
  -3   1  -2   62.39    4.34
  -3   1  -2   62.61    4.34
  -3   1  -2   62.27    4.32
   3   1   2   55.05    4.26
  -3   1  -2   62.04    4.18
  -5  -1  -2    3.57    0.34
  -5  -1  -2    3.23    0.39
   5  -1   2    3.20    0.41
  -5  -1  -2    2.80    0.30
  -5  -1  -2    2.88    0.48
  -5  -1  -2    2.96    0.38
   5  -1   2    2.82    0.38
   5   1   2    3.37    0.41
  -5   1  -2    3.89    0.55
   5   1   2    3.66    0.44
  -5   1  -2    3.11    0.44
  -5   1  -2    3.10    0.43
   7  -1   2    7.48    0.84
  -7  -1  -2    7.72    0.80
  -7  -1  -2    9.21    0.83
   7  -1   2    6.90    0.86
  -7  -1  -2    4.99    0.82
   7   1   2    9.67    0.95
  -7   1  -2    8.64    0.91
   7   1   2    7.81    0.88
  -7   1  -2    8.16    0.85
  -7   1  -2    8.73    1.02
   9  -1   2   -0.07    0.34
  -9  -1  -2    0.44    0.28
   9  -1   2    0.17    0.33
  -9  -1  -2   -0.21    0.32
  -9  -1  -2    0.12    0.27
  -9   1  -2    0.10    0.36
  -9   1  -2    0.06    0.28
   9   1   2   -0.21    0.34
  -9   1  -2    0.31    0.36
 -11  -1  -2    0.21    0.37
  11  -1   2   -0.08    0.50
 -11  -1  -2    0.11    0.35
 -11  -1  -2    1.12    0.56
 -11   1  -2    0.98    0.48
 -11   1  -2    0.21    0.51
  11   1   2    0.42    0.55
 -11   1  -2    0.02    0.38
  12  -2  -2    3.45    0.88
 -12  -2   2    4.06    0.77
 -12  -2   2    4.56    0.92
 -12  -2   2    5.03    0.84
  12  -2  -2    4.45    0.94
  12   2  -2    5.36    1.14
 -12   2   2    4.46    0.89
 -12   2   2    3.48    0.82
 -12   2   2    4.75    0.88
  10  -2  -2    0.34    0.40
  10  -2  -2   -0.01    0.36
 -10  -2   2    0.11    0.41
 -10  -2   2    0.17    0.36
 -10  -2   2    0.13    0.35
 -10   2   2    0.02    0.41
 -10   2   2   -0.15    0.37
 -10   2   2   -0.18    0.35
  10   2  -2   -0.01    0.51
   8  -2  -2   22.46    1.94
  -8  -2   2   25.96    1.99
   8  -2  -2   19.55    2.02
  -8  -2   2   21.43    2.01
  -8  -2   2   24.73    1.95
  -8   2   2   25.25    2.03
   8   2  -2   23.66    2.16
  -8   2   2   26.84    2.01
   8   2  -2   29.18    2.13
  -8   2   2   27.47    2.10
  -6  -2   2    0.25    0.26
  -6  -2   2    0.15    0.23
   6  -2  -2    0.03    0.20
   6  -2  -2    0.50    0.29
  -6  -2   2    0.06    0.23
   6   2  -2   -0.44    0.25
  -6   2   2    0.42    0.28
  -6   2   2    0.20    0.24
  -6   2   2    0.03    0.21
   6   2  -2    0.27    0.30
  -4  -2   2  494.32   34.59
  -4  -2   2  486.14   34.07
  -4  -2   2  504.40   33.41
   4  -2  -2  496.50   33.38
  -4   2   2  503.25   34.05
   4   2  -2  505.59   33.44
  -4   2   2  522.15   33.40
  -4   2   2  505.38   34.60
   4   2  -2  479.82   34.63
  -2  -2   2    3.64    0.51
   2  -2  -2    6.23    0.66
   2  -2  -2    7.29    0.53
   2  -2  -2    7.24    0.56
  -2  -2   2    5.85    0.65
  -2  -2   2    4.35    0.52
  -2  -2   2    4.22    0.55
   2   2  -2    4.49    0.61
  -2   2   2    4.11    0.50
  -2   2   2    4.83    0.49
   2   2  -2    5.77    0.59
   0  -2   2  301.39   20.34
   0  -2  -2  283.18   20.95
   0  -2   2  299.66   19.65
   0  -2  -2  312.17   24.36
   0  -2  -2  283.35   20.02
   0   2  -2  291.66   20.38
   0   2  -2  286.92   19.67
   2  -2   2  287.83   20.36
  -2  -2  -2  275.09   20.64
   2  -2   2  306.89   19.67
  -2  -2  -2  297.39   20.11
  -2  -2  -2  293.79   21.00
  -2   2  -2  298.96   19.71
  -2   2  -2  299.25   20.42
   4  -2   2  162.00   10.73
  -4  -2  -2  159.66   10.31
  -4  -2  -2  144.58   10.28
  -4  -2  -2  151.56   10.67
   4  -2   2  159.61   10.37
  -4   2  -2  154.46   10.41
  -4   2  -2  155.95   10.68
  -4   2  -2  154.65   10.79
   4   2   2  145.90   10.70
  -6  -2  -2    7.49    0.61
   6  -2   2    4.72    0.63
  -6  -2  -2    7.27    0.84
  -6  -2  -2    5.67    0.50
  -6  -2  -2    6.32    0.54
  -6  -2  -2    6.82    0.62
   6  -2   2    6.22    0.72
  -6   2  -2    6.84    0.73
   6   2   2    6.00    0.69
  -6   2  -2    6.33    0.82
  -6   2  -2    7.04    0.78
   6   2   2    6.40    0.71
  -8  -2  -2   61.16    4.71
  -8  -2  -2   64.32    4.43
   8  -2   2   59.77    4.53
   8  -2   2   60.48    4.71
  -8  -2  -2   65.99    4.55
  -8   2  -2   65.64    4.55
  -8   2  -2   67.78    4.73
  -8   2  -2   62.28    4.75
   8   2   2   64.20    4.74
  10  -2   2   -0.49    0.38
  10  -2   2    0.14    0.39
 -10  -2  -2   -0.16    0.26
 -10  -2  -2   -0.07    0.26
 -10  -2  -2   -0.41    0.40
 -10   2  -2    0.36    0.39
 -10   2  -2    0.33    0.44
 -10   2  -2    0.57    0.48
  12  -2   2    3.85    0.94
 -12  -2  -2    5.04    0.68
 -12  -2  -2    4.06    0.93
 -12   2  -2    5.67    1.08
 -12   2  -2    5.53    0.93
 -12   2  -2    3.81    0.78
 -11  -3   2    0.43    0.41
 -11  -3   2    0.65    0.40
  11  -3  -2    0.09    0.46
 -11  -3   2    0.16    0.42
  11  -3  -2    0.83    0.50
  11   3  -2    0.16    0.64
 -11   3   2    0.08    0.40
 -11   3   2    0.23    0.50
 -11   3   2    0.05    0.43
  -9  -3   2    1.03    0.39
  -9  -3   2    0.76    0.46
  -9  -3   2    0.97    0.39
   9  -3  -2    0.92    0.42
   9  -3  -2    0.63    0.44
   9   3  -2    1.72    0.63
  -9   3   2    1.10    0.46
  -9   3   2    0.91    0.50
  -9   3   2    2.05    0.55
  -7  -3   2    0.91    0.35
   7  -3  -2    1.10    0.36
  -7  -3   2    1.35    0.37
  -7  -3   2    1.56    0.45
   7  -3  -2    0.70    0.29
  -7   3   2    0.83    0.35
  -7   3   2    1.28    0.37
   7   3  -2    2.50    0.58
   7   3  -2    0.22    0.40
  -7   3   2    1.14    0.39
  -5  -3   2   14.33    1.17
   5  -3  -2   13.01    1.22
  -5  -3   2   13.89    1.21
  -5  -3   2   14.93    1.28
   5  -3  -2   14.06    1.16
  -5   3   2   15.98    1.21
   5   3  -2   13.41    1.37
  -5   3   2   14.24    1.25
  -5   3   2   13.53    1.20
   5   3  -2   14.73    1.26
  -3  -3   2  115.58    9.86
  -3  -3   2  118.51    7.97
  -3  -3   2  121.32    8.20
  -3  -3   2  115.21    8.23
   3   3  -2  117.27    8.33
  -3   3   2  118.57    7.97
  -3   3   2  122.60    8.26
   3   3  -2  112.02    8.01
  -1  -3   2    6.36    0.69
  -1  -3   2    5.85    0.77
  -1  -3   2    5.03    0.56
  -1  -3   2    5.70    0.55
   1   3  -2    7.13    0.68
   1   3  -2    6.29    0.70
  -1   3   2    9.00    0.60
   1  -3   2  101.09    6.89
  -1  -3  -2  104.72    6.87
   1  -3   2   95.30    6.66
  -1  -3  -2   97.20    7.14
  -1  -3  -2   96.24    7.05
  -1   3  -2   96.95    6.98
  -1   3  -2  101.00    6.74
   3  -3   2    1.96    0.28
  -3  -3  -2    2.27    0.35
  -3  -3  -2    2.91    0.46
   3  -3   2    2.01    0.28
   3  -3   2    1.97    0.27
  -3   3  -2    2.41    0.39
  -3   3  -2    3.18    0.41
  -5  -3  -2    4.55    0.66
   5  -3   2    4.64    0.57
   5  -3   2    5.48    0.57
   5   3   2    5.52    0.59
  -5   3  -2    4.77    0.66
  -5   3  -2    5.42    0.62
  -5   3  -2    3.33    0.57
  -7  -3  -2   12.13    1.30
   7  -3   2   10.60    1.12
  -7  -3  -2   11.31    0.87
   7  -3   2    8.90    1.10
  -7  -3  -2   11.35    0.82
  -7   3  -2   12.40    1.18
  -7   3  -2   10.31    1.24
  -7   3  -2   13.03    1.25
   7   3   2   11.05    1.19
  -9  -3  -2    1.74    0.60
   9  -3   2    1.10    0.42
   9  -3   2    0.43    0.41
  -9  -3  -2    1.42    0.31
  -9   3  -2    1.33    0.45
  -9   3  -2    0.28    0.39
  -9   3  -2    1.63    0.59
 -11  -3  -2   -0.01    0.25
  11  -3   2    0.88    0.54
  11  -3   2    0.00    0.42
 -11  -3  -2   -0.21    0.44
 -11   3  -2   -0.36    0.50
 -11   3  -2    0.34    0.45
 -11   3  -2    0.14    0.46
 -10  -4   2    7.73    0.83
  10  -4  -2    6.04    0.92
 -10  -4   2    5.88    0.82
  10  -4  -2    6.17    0.97
 -10  -4   2    7.61    1.10
 -10   4   2    9.02    1.13
  10   4  -2    6.31    1.16
 -10   4   2    6.83    1.06
 -10   4   2    9.22    1.18
   8  -4  -2    0.42    0.36
   8  -4  -2   -0.07    0.27
  -8  -4   2   -0.16    0.25
  -8  -4   2    0.33    0.38
  -8  -4   2    0.22    0.28
  -8   4   2    0.19    0.36
  -8   4   2    0.35    0.35
  -8   4   2   -0.58    0.32
   8   4  -2   -0.87    0.42
  -6  -4   2   65.10    4.42
   6  -4  -2   61.31    4.42
  -6  -4   2   56.49    4.61
   6  -4  -2   65.99    4.62
  -6  -4   2   65.33    4.53
   6   4  -2   60.73    4.71
   6   4  -2   62.26    4.52
  -6   4   2   60.75    4.63
  -6   4   2   63.39    4.58
  -6   4   2   67.04    4.49
  -4  -4   2    0.12    0.17
  -4  -4   2    0.83    0.34
   4  -4  -2    0.49    0.25
  -4  -4   2    0.01    0.18
   4  -4  -2    0.35    0.21
  -4   4   2    0.40    0.22
  -4   4   2    0.81    0.27
   4   4  -2    0.31    0.31
   4   4  -2    0.77    0.29
  -2  -4   2  478.45   42.63
  -2  -4   2  508.73   35.60
   2  -4  -2  501.48   34.39
  -2  -4   2  520.50   35.19
  -2  -4   2  507.44   34.39
   2  -4  -2  529.92   35.62
   2  -4  -2  593.39   34.39
   2  -4  -2  509.05   36.69
   2   4  -2  502.15   34.47
   2   4  -2  507.88   35.72
  -2   4   2  515.39   34.41
  -2   4   2  510.29   35.65
   0  -4  -2   56.84    4.88
   0  -4  -2   56.13    4.13
   0  -4   2   57.14    3.96
   0  -4   2   55.24    3.83
   0   4   2   54.70    3.96
   0   4  -2   61.75    3.94
   0   4  -2   53.78    4.07
   2  -4   2  138.15    9.64
  -2  -4  -2  137.95    9.62
   2  -4   2  138.08    9.32
  -2  -4  -2  138.19    9.97
  -2  -4  -2  137.54    9.85
  -2   4  -2  138.52    9.40
  -2   4  -2  142.53    9.76
  -4  -4  -2    1.99    0.46
   4  -4   2    2.23    0.38
   4  -4   2    3.43    0.41
  -4   4  -2    2.70    0.44
   4   4   2    2.66    0.37
  -4   4  -2    2.38    0.45
   6  -4   2   65.98    4.56
  -6  -4  -2   58.84    4.60
   6  -4   2   59.40    4.37
  -6   4  -2   66.48    4.64
  -6   4  -2   60.71    4.60
  -6   4  -2   61.93    4.43
  -6   4  -2   66.68    4.62
   6   4   2   60.19    4.55
  -8  -4  -2    4.66    0.78
   8  -4   2    0.95    0.46
   8  -4   2    2.73    0.55
  -8   4  -2    2.69    0.64
  -8   4  -2    2.65    0.60
  -8   4  -2    1.93    0.51
  10  -4   2   13.59    1.51
  10  -4   2   11.63    1.54
 -10  -4  -2   15.23    1.70
 -10   4  -2   12.97    1.56
 -10   4  -2   19.10    1.71
 -10   4  -2   17.92    1.84
 -11  -5   2    0.32    0.32
 -11  -5   2   -0.04    0.51
  11  -5  -2   -0.58    0.44
  11  -5  -2    0.35    0.43
 -11   5   2    1.16    0.63
 -11   5   2    0.37    0.52
 -11   5   2    0.40    0.55
   9  -5  -2    0.50    0.43
  -9  -5   2    0.84    0.52
  -9  -5   2    0.96    0.29
   9  -5  -2    0.58    0.37
  -9  -5   2    0.80    0.32
  -9   5   2    0.72    0.44
  -9   5   2    0.86    0.48
  -9   5   2    0.90    0.55
   7  -5  -2   -0.17    0.24
  -7  -5   2    0.34    0.23
   7  -5  -2    0.58    0.36
  -7  -5   2   -0.07    0.36
  -7  -5   2    0.04    0.23
  -7   5   2    0.13    0.32
  -7   5   2    0.58    0.37
   7   5  -2    0.60    0.47
  -7   5   2    0.10    0.35
   5  -5  -2    4.49    0.58
  -5  -5   2    3.39    0.44
  -5  -5   2    2.66    0.58
   5  -5  -2    2.99    0.47
  -5  -5   2    3.53    0.39
  -5  -5   2    2.93    0.41
   5   5  -2    2.50    0.60
   5   5  -2    2.96    0.55
  -5   5   2    3.26    0.50
  -5   5   2    2.50    0.50
  -3  -5   2   11.67    1.42
  -3  -5   2   14.62    1.25
  -3  -5   2   11.37    0.96
  -3  -5   2    9.66    1.00
   3  -5  -2   13.54    1.13
   3  -5  -2   13.69    1.05
  -3  -5   2   11.62    1.04
  -3  -5   2   11.18    0.95
   3  -5  -2   15.66    1.40
   3  -5  -2   15.18    1.01
  -3   5   2   12.24    1.09
  -3   5   2   13.41    1.06
   3   5  -2   14.63    1.30
   3   5  -2   11.51    1.16
   1  -5  -2   29.49    2.18
   1  -5  -2   29.20    1.97
   1  -5  -2   32.30    2.68
   1  -5  -2   26.78    1.96
  -1  -5   2   28.98    2.10
  -1  -5   2   24.87    2.61
  -1  -5   2   29.60    2.04
  -1  -5   2   28.01    1.99
   1   5  -2   28.02    2.22
  -1   5   2   28.24    2.12
   1   5  -2   28.74    2.11
  -1  -5  -2    0.09    0.28
  -1  -5  -2   -0.08    0.32
  -1  -5  -2    0.17    0.19
  -1  -5  -2   -0.09    0.22
   1  -5   2    0.23    0.12
   1  -5   2    0.04    0.11
  -1   5  -2   -0.11    0.22
  -1   5  -2   -0.12    0.21
   3  -5   2    1.95    0.33
  -3  -5  -2    5.74    0.69
  -3  -5  -2    3.16    0.54
   3  -5   2    2.77    0.38
  -3  -5  -2    3.61    0.46
   3  -5   2    3.49    0.42
  -3   5  -2    2.98    0.47
  -3   5  -2    3.54    0.54
   5  -5   2    0.82    0.29
  -5  -5  -2    0.83    0.38
   5  -5   2    1.25    0.30
  -5   5  -2    0.22    0.31
  -5   5  -2    0.50    0.31
   7  -5   2    0.29    0.34
   7  -5   2    0.82    0.34
  -7  -5  -2    0.56    0.43
  -7   5  -2   -0.20    0.35
  -7   5  -2    0.46    0.35
  -7   5  -2    0.83    0.40
  -7   5  -2    0.56    0.39
   9  -5   2    4.61    0.86
   9  -5   2    4.60    0.77
  -9  -5  -2    4.37    0.88
  -9   5  -2    3.47    0.83
  -9   5  -2    6.14    0.93
  -9   5  -2    5.45    0.86
  11  -5   2   -0.14    0.46
 -11  -5  -2    0.43    0.59
  11  -5   2    0.81    0.62
 -11   5  -2    0.12    0.51
 -11   5  -2    0.29    0.57
 -11   5  -2    0.20    0.60
 -10  -6   2    0.22    0.24
  10  -6  -2    0.16    0.42
 -10  -6   2    0.42    0.58
  10  -6  -2    0.86    0.51
 -10   6   2   -0.29    0.44
 -10   6   2   -0.27    0.43
 -10   6   2   -0.35    0.54
  -8  -6   2   27.63    2.50
  -8  -6   2   27.34    2.08
   8  -6  -2   31.77    2.41
   8  -6  -2   30.75    2.29
  -8   6   2   27.73    2.43
  -8   6   2   30.09    2.51
  -8   6   2   27.45    2.36
   6  -6  -2    0.80    0.34
   6  -6  -2    1.21    0.39
  -6  -6   2    1.06    0.24
  -6  -6   2    0.78    0.44
  -6   6   2    0.85    0.39
  -6   6   2    0.61    0.39
  -6   6   2    0.40    0.37
   6   6  -2    0.65    0.47
   4  -6  -2   66.45    4.57
  -4  -6   2   62.99    4.49
   4  -6  -2   66.08    4.89
  -4  -6   2   61.16    4.52
  -4  -6   2   59.14    4.64
  -4  -6   2   67.82    4.61
   4  -6  -2   75.59    5.81
   4  -6  -2   76.93    4.77
  -4  -6   2   66.52    4.89
   4   6  -2   63.72    4.88
  -4   6   2   66.97    4.82
  -4   6   2   63.94    4.63
  -2  -6   2    5.71    0.61
  -2  -6   2    5.44    0.47
  -2  -6   2    5.37    0.47
  -2  -6   2    5.04    0.85
   2  -6  -2    4.96    0.55
   2  -6  -2    6.17    0.64
   2  -6  -2    5.03    0.51
   2  -6  -2    4.76    0.86
  -2  -6   2    5.70    0.60
  -2  -6   2    4.39    0.72
   2  -6  -2    4.78    0.51
   2  -6  -2    6.80    0.57
  -2   6   2    4.87    0.64
  -2   6   2    6.41    0.65
   2   6  -2    5.75    0.71
   2   6  -2    5.87    0.70
   0  -6   2  128.74    8.30
   0  -6  -2  117.05   10.46
   0  -6  -2  129.92    8.90
   0  -6   2  123.84    8.71
   0  -6   2  128.82    8.59
   0  -6   2  126.17   10.49
   0   6   2  115.63    8.63
   0   6  -2  118.71    8.42
   0   6  -2  118.61    8.74
  -2  -6  -2    2.12    0.46
  -2  -6  -2    2.17    0.37
   2  -6   2    1.98    0.30
  -2  -6  -2    3.32    0.55
   2  -6   2    2.10    0.33
   2  -6   2    2.47    0.32
  -2   6  -2    2.37    0.48
  -2   6  -2    1.59    0.38
   4  -6   2   65.67    4.78
  -4  -6  -2   74.48    5.11
   4  -6   2   63.18    4.95
  -4   6  -2   73.83    4.90
  -4   6  -2   73.14    5.10
   6  -6   2    2.63    0.48
  -6  -6  -2    3.94    0.76
   6  -6   2    2.06    0.51
  -6   6  -2    1.98    0.56
  -6   6  -2    2.83    0.56
   8  -6   2   37.80    2.82
   8  -6   2   42.55    3.00
  -8  -6  -2   32.33    3.02
  -8   6  -2   36.95    3.06
  -8   6  -2   32.46    2.96
  -8   6  -2   37.44    3.02
  -8   6  -2   35.69    2.87
  10  -6   2   -0.02    0.51
 -10  -6  -2    0.32    0.56
  10  -6   2    0.38    0.43
 -10   6  -2    1.32    0.63
 -10   6  -2    1.06    0.54
 -10   6  -2    0.34    0.52
   9  -7  -2    0.37    0.40
   9  -7  -2    0.30    0.42
  -9  -7   2    1.04    0.58
   9  -7  -2    0.89    0.68
  -9   7   2    0.73    0.49
  -9   7   2    0.33    0.53
  -9   7   2    0.68    0.59
   7  -7  -2    0.10    0.31
   7  -7  -2    1.12    0.64
  -7  -7   2    1.92    0.65
   7  -7  -2    1.08    0.42
  -7   7   2    0.71    0.44
  -7   7   2    1.95    0.62
  -7   7   2    0.62    0.39
  -7   7   2    1.04    0.48
   5  -7  -2    1.05    0.53
   5  -7  -2    0.76    0.30
  -5  -7   2    1.12    0.52
   5  -7  -2    0.67    0.33
  -5  -7   2    0.92    0.17
   5  -7  -2    1.33    0.43
  -5   7   2    0.31    0.34
  -5   7   2    1.17    0.41
   5   7  -2    1.36    0.50
  -3  -7   2    8.50    1.23
   3  -7  -2    8.97    1.30
  -3  -7   2    9.77    0.69
   3  -7  -2    7.75    0.75
  -3  -7   2   11.03    1.23
   3  -7  -2    9.47    0.91
  -3  -7   2    8.58    0.77
   3  -7  -2    8.53    0.82
  -3  -7   2    8.36    0.75
  -3   7   2   10.79    1.06
   3   7  -2    7.85    1.00
  -1  -7   2    2.25    0.40
   1  -7  -2    2.96    0.40
  -1  -7   2    1.97    0.27
  -1  -7   2    1.99    0.27
   1  -7  -2    1.27    0.52
  -1  -7   2    1.86    0.37
  -1  -7   2    2.01    0.39
  -1  -7   2    2.14    0.65
   1   7  -2    1.72    0.42
   1   7  -2    2.13    0.49
  -1   7   2    1.98    0.41
   1  -7   2    3.26    0.79
  -1  -7  -2    3.29    0.59
   1  -7   2    3.28    0.41
  -1  -7  -2    3.40    0.79
   1  -7   2    3.68    0.46
  -1  -7  -2    3.84    0.50
   1  -7   2    4.05    0.43
  -1   7  -2    3.56    0.60
  -1   7  -2    3.55    0.62
   3  -7   2    0.26    0.22
   3  -7   2    0.04    0.20
  -3  -7  -2    0.17    0.35
  -3  -7  -2   -0.42    0.32
  -3   7  -2    0.20    0.32
  -3   7  -2   -0.49    0.26
  -5  -7  -2    0.42    0.42
   5  -7   2   -0.06    0.29
   5  -7   2    0.24    0.26
  -5   7  -2   -0.44    0.32
  -5   7  -2    0.28    0.36
   7  -7   2    4.08    0.75
  -7  -7  -2    4.63    0.90
   7  -7   2    4.94    0.74
  -7   7  -2    5.30    0.84
  -7   7  -2    4.38    0.90
  -7   7  -2    4.06    0.81
  -9  -7  -2    0.11    0.53
   9  -7   2    1.02    0.48
   9  -7   2   -0.56    0.45
  -9   7  -2    0.22    0.57
  -9   7  -2   -0.26    0.42
  -9   7  -2   -0.39    0.51
   8  -8  -2    0.40    0.41
  -8  -8   2   -1.07    0.42
   8  -8  -2    1.03    0.47
   8  -8  -2    0.51    0.65
  -8   8   2   -0.39    0.49
  -8   8   2    0.45    0.49
   6  -8  -2   41.58    3.73
   6  -8  -2   35.35    2.85
   6  -8  -2   36.55    2.95
  -6  -8   2   40.59    3.28
  -6   8   2   43.06    3.16
   4  -8  -2    6.16    0.67
  -4  -8   2    5.27    0.90
   4  -8  -2    4.36    0.97
   4  -8  -2    6.13    0.67
  -4  -8   2    5.46    0.49
  -4   8   2    7.26    0.90
   2  -8  -2   60.37    5.50
   2  -8  -2   62.99    4.51
  -2  -8   2   59.48    5.50
  -2  -8   2   66.40    4.17
   2  -8  -2   55.09    4.16
   2  -8  -2   60.40    4.18
  -2   8   2   63.78    4.52
   2   8  -2   62.44    4.58
   0  -8   2    2.00    0.32
   0  -8   2    2.29    0.44
   0  -8   2    2.78    0.36
   0  -8   2    1.75    0.66
   0  -8  -2    1.94    0.68
   0  -8  -2    2.95    0.41
   0   8  -2    1.73    0.49
   2  -8   2   22.60    1.74
  -2  -8  -2   21.58    1.77
   2  -8   2   22.51    2.37
   2  -8   2   21.28    1.67
  -2  -8  -2   23.05    1.93
  -2   8  -2   24.30    1.96
  -2   8  -2   21.87    1.83
   4  -8   2   -0.07    0.28
  -4  -8  -2   -0.12    0.39
   4  -8   2    0.56    0.31
  -4   8  -2    0.20    0.40
  -4   8  -2    0.73    0.39
  -6  -8  -2   44.72    3.71
   6  -8   2   45.31    3.38
   6  -8   2   44.60    3.52
  -6   8  -2   48.46    3.67
  -6   8  -2   45.79    3.49
  -8  -8  -2    1.90    0.77
   8  -8   2    2.38    0.62
   8  -8   2    1.23    0.57
  -8   8  -2    2.19    0.75
  -8   8  -2    2.05    0.67
  -8   8  -2    1.48    0.62
  -8   8  -2    2.42    0.78
   7  -9  -2    0.05    0.59
  -7  -9   2    0.11    0.50
   7  -9  -2    0.34    0.37
   7  -9  -2    0.07    0.38
  -7   9   2    0.22    0.51
  -7   9   2   -0.54    0.52
   5  -9  -2    3.04    0.55
   5  -9  -2    4.40    0.97
  -5  -9   2    3.73    0.86
   5  -9  -2    3.65    0.57
  -5   9   2    4.03    0.76
   3  -9  -2    0.57    0.25
   3  -9  -2    1.00    0.63
  -3  -9   2    0.54    0.58
   1  -9  -2    0.25    0.49
  -1  -9   2    0.68    0.40
  -1  -9   2    0.61    0.55
  -1  -9   2    0.02    0.17
   1   9  -2    0.01    0.38
   1  -9   2   -0.14    0.50
   1  -9   2   -0.63    0.32
  -1  -9  -2   -0.06    0.41
  -1  -9  -2   -0.52    0.45
   1  -9   2   -0.30    0.23
  -1  -9  -2    0.31    0.24
   1  -9   2    0.02    0.21
  -1   9  -2   -0.15    0.35
   3  -9   2    2.08    0.46
   3  -9   2    2.43    0.46
   3  -9   2    1.16    0.73
  -3  -9  -2    3.50    0.70
  -3  -9  -2    1.51    0.58
  -3   9  -2    2.66    0.64
  -5  -9  -2    0.45    0.47
   5  -9   2    1.42    0.48
   5  -9   2    1.49    0.45
  -5   9  -2    1.39    0.58
   7  -9   2   -0.17    0.40
  -7  -9  -2    1.17    0.73
   7  -9   2    0.96    0.51
  -7   9  -2    0.37    0.50
  -7   9  -2    1.28    0.67
   6 -10  -2   -0.01    0.65
  -6 -10   2    0.06    0.54
   6 -10  -2   -0.18    0.36
   6 -10  -2    0.47    0.37
   4 -10  -2   16.25    1.30
   4 -10  -2   17.81    2.27
  -2 -10   2    0.19    0.55
   2 -10  -2    0.08    0.54
   0 -10  -2   36.76    3.01
   0 -10   2   39.61    2.67
   0 -10  -2   35.15    3.70
   0 -10   2   36.81    3.76
   2 -10   2    0.65    0.66
   2 -10   2    0.55    0.33
   2 -10   2    0.18    0.29
  -2 -10  -2    0.53    0.55
  -2  10  -2    0.55    0.47
   4 -10   2   11.03    1.15
   4 -10   2   10.55    1.13
  -4 -10  -2    9.82    1.38
   4 -10   2   10.23    1.70
  -4  10  -2   10.16    1.36
   6 -10   2   -0.18    0.41
   6 -10   2    0.80    0.46
  -6 -10  -2    0.34    0.51
   6 -10   2    1.29    0.76
  -6  10  -2    0.71    0.62
   5 -11  -2    0.25    0.28
   5 -11  -2   -0.29    0.67
  -3 -11   2    0.77    0.74
   3 -11  -2   -0.07    0.64
  -1 -11   2    0.18    0.60
   1 -11  -2    0.59    0.55
   1 -11  -2    0.41    0.69
   1 -11   2    1.03    0.32
  -1 -11  -2    1.13    0.59
  -1 -11  -2    0.82    0.74
   1 -11   2    2.62    0.93
   3 -11   2   -0.55    0.61
   3 -11   2   -0.21    0.31
  -3 -11  -2   -0.13    0.59
   3 -11   2   -0.16    0.33
   5 -11   2    0.81    0.44
   5 -11   2    0.13    0.72
   5 -11   2    0.56    0.44
  -5  11  -2    0.54    0.63
   4 -12  -2    1.01    0.82
  -2 -12   2    8.57    1.55
   2 -12  -2    7.98    1.53
   0 -12  -2    0.72    0.82
   0 -12   2    1.00    0.81
   2 -12   2    5.70    0.64
   2 -12   2    6.25    1.36
   4 -12   2    0.85    0.41
   4 -12   2    0.02    0.79
  12   0  -3    0.00    0.56
 -12   0   3    0.18    0.50
 -12   0   3    0.46    0.50
 -12   0   3    0.34    0.50
  10   0  -3   -0.01    0.45
  10   0  -3    0.85    0.51
 -10   0   3    0.11    0.36
 -10   0   3    0.01    0.34
 -10   0   3    0.26    0.38
  -8   0   3   -0.06    0.27
  -8   0   3    0.24    0.31
   8   0  -3   -0.51    0.30
  -8   0   3   -0.19    0.26
   8   0  -3   -0.27    0.32
  -6   0   3   -0.23    0.20
  -6   0   3   -0.31    0.19
  -6   0   3   -0.05    0.20
   6   0  -3   -0.06    0.25
   6   0  -3    0.27    0.29
   4   0  -3    0.02    0.22
  -4   0   3   -0.08    0.16
  -4   0   3    0.17    0.20
  -4   0   3   -0.21    0.15
   4   0  -3   -0.03    0.20
  -2   0   3   -0.13    0.14
  -2   0   3   -0.42    0.11
   2   0  -3   -0.02    0.19
  -2   0   3   -0.06    0.17
   2   0  -3   -0.11    0.19
   0   0  -3   -0.05    0.12
   0   0   3   -0.01    0.11
   0   0   3    0.18    0.12
   0   0  -3    0.06    0.12
   0   0  -3   -0.01    0.12
   0   0  -3   -0.16    0.16
  -2   0  -3    0.15    0.11
  -2   0  -3   -0.04    0.15
   2   0   3    0.08    0.10
  -2   0  -3    0.22    0.15
  -2   0  -3    0.12    0.11
  -2   0  -3   -0.06    0.10
  -2   0  -3    0.14    0.11
   4   0   3    0.08    0.09
  -4   0  -3    0.05    0.13
  -4   0  -3   -0.18    0.17
   4   0   3    0.15    0.10
  -4   0  -3   -0.18    0.13
  -6   0  -3    0.06    0.25
   6   0   3   -0.11    0.17
   6   0   3   -0.27    0.16
  -6   0  -3    0.03    0.19
  -6   0  -3   -0.09    0.20
   8   0   3   -0.09    0.28
  -8   0  -3    0.01    0.26
   8   0   3    0.16    0.28
  -8   0  -3    0.66    0.38
  -8   0  -3    0.12    0.25
  10   0   3    0.14    0.44
 -10   0  -3    0.05    0.42
 -10   0  -3    0.20    0.34
 -10   0  -3   -0.16    0.28
 -12   0  -3    0.36    0.39
 -12   0  -3    0.56    0.60
 -12   0  -3   -0.64    0.41
  12   0   3   -0.13    0.59
  11  -1  -3   -0.19    0.50
 -11  -1   3   -0.44    0.35
 -11  -1   3   -0.36    0.38
  11  -1  -3   -0.20    0.49
 -11  -1   3   -0.20    0.35
 -11   1   3    0.24    0.42
 -11   1   3    0.02    0.41
  11   1  -3    0.16    0.57
 -11   1   3   -0.14    0.37
  -9  -1   3   -0.14    0.31
  -9  -1   3   -0.15    0.32
   9  -1  -3   -0.07    0.37
   9  -1  -3   -0.08    0.37
  -9  -1   3   -0.13    0.29
   9   1  -3    0.09    0.39
  -9   1   3   -0.17    0.33
  -9   1   3    0.70    0.40
  -9   1   3    0.16    0.30
   9   1  -3   -0.08    0.38
   7  -1  -3    1.98    0.48
  -7  -1   3    2.26    0.45
  -7  -1   3    2.20    0.48
   7  -1  -3    1.61    0.46
  -7  -1   3    2.30    0.47
   7   1  -3    1.77    0.48
  -7   1   3    2.93    0.49
  -7   1   3    1.68    0.45
   7   1  -3    2.09    0.56
  -7   1   3    1.96    0.45
   5  -1  -3    6.98    0.85
  -5  -1   3    9.41    0.92
   5  -1  -3    8.99    0.96
  -5  -1   3    7.19    0.85
  -5  -1   3   10.07    0.95
   5   1  -3   10.67    0.98
   5   1  -3    9.52    1.01
  -5   1   3    9.83    0.91
  -5   1   3    9.79    0.91
  -5   1   3    8.08    0.89
   3  -1  -3   66.29    4.91
   3  -1  -3   64.92    4.09
  -3  -1   3   56.98    4.22
  -3  -1   3   59.88    4.08
  -3  -1   3   58.30    4.12
   3  -1  -3   68.47    4.25
  -3   1   3   57.22    4.09
   3   1  -3   53.55    4.25
   3   1  -3   51.79    4.07
  -3   1   3   53.25    4.19
  -3   1   3   55.28    4.05
   1  -1  -3    2.85    0.31
  -1  -1   3    2.17    0.32
   1  -1  -3    2.60    0.27
  -1  -1   3    2.30    0.29
   1  -1  -3    2.62    0.31
   1  -1  -3    2.56    0.27
  -1  -1   3    2.39    0.34
  -1   1   3    2.81    0.29
   1   1  -3    1.98    0.33
   1   1  -3    2.11    0.37
  -1  -1  -3    7.95    0.72
  -1  -1  -3    7.19    0.63
  -1  -1  -3    6.90    0.71
   1  -1   3    8.36    0.62
   1  -1   3    7.52    0.64
  -1   1  -3    8.45    0.68
  -1   1  -3    7.82    0.68
  -1   1  -3    8.07    0.64
  -3  -1  -3    3.79    0.35
  -3  -1  -3    3.74    0.32
   3  -1   3    3.72    0.37
  -3  -1  -3    4.37    0.47
  -3  -1  -3    4.46    0.52
   3  -1   3    4.21    0.36
  -3   1  -3    3.86    0.42
  -3   1  -3    3.10    0.46
  -3   1  -3    4.24    0.45
  -3   1  -3    5.01    0.45
   3   1   3    3.58    0.34
  -5  -1  -3   21.17    1.52
  -5  -1  -3   22.72    1.53
   5  -1   3   19.74    1.52
   5  -1   3   21.00    1.58
  -5  -1  -3   21.42    1.48
  -5  -1  -3   21.19    1.56
  -5  -1  -3   20.20    1.68
  -5   1  -3   19.93    1.63
  -5   1  -3   21.23    1.69
  -5   1  -3   19.09    1.56
   5   1   3   21.22    1.52
   5   1   3   20.60    1.55
  -7  -1  -3    1.29    0.29
  -7  -1  -3    0.96    0.37
   7  -1   3    1.45    0.34
  -7  -1  -3    1.04    0.29
   7  -1   3    1.05    0.32
  -7   1  -3    1.19    0.35
   7   1   3    0.96    0.33
  -7   1  -3    1.07    0.43
   7   1   3    0.79    0.31
  -7   1  -3    1.42    0.34
   9  -1   3    0.00    0.33
  -9  -1  -3    0.21    0.28
   9  -1   3   -0.13    0.33
  -9  -1  -3    0.06    0.26
  -9  -1  -3    0.70    0.41
   9   1   3    0.02    0.36
  -9   1  -3   -0.08    0.33
  -9   1  -3    0.26    0.31
  -9   1  -3    0.25    0.41
 -11  -1  -3    0.10    0.45
 -11  -1  -3   -0.31    0.29
 -11  -1  -3   -0.07    0.30
  11  -1   3    0.75    0.55
 -11   1  -3   -0.30    0.46
 -11   1  -3   -0.16    0.36
 -11   1  -3   -0.09    0.39
  12  -2  -3   -0.42    0.53
 -12  -2   3   -0.21    0.40
  12  -2  -3    0.47    0.55
 -12  -2   3   -0.48    0.47
 -12  -2   3   -0.50    0.45
  12   2  -3    0.36    0.67
 -12   2   3   -0.21    0.50
 -12   2   3    0.08    0.46
 -12   2   3    0.59    0.56
 -10  -2   3    0.45    0.39
  10  -2  -3    1.29    0.52
  10  -2  -3    0.79    0.49
 -10  -2   3    0.69    0.41
 -10  -2   3    0.47    0.42
 -10   2   3    1.07    0.50
 -10   2   3    0.59    0.41
  10   2  -3    0.30    0.53
 -10   2   3    0.48    0.42
  -8  -2   3    0.18    0.28
  -8  -2   3    0.02    0.31
   8  -2  -3    0.29    0.37
   8  -2  -3    0.21    0.30
  -8  -2   3   -0.20    0.24
  -8   2   3   -0.30    0.30
  -8   2   3    0.58    0.32
  -8   2   3   -0.16    0.26
   8   2  -3    0.40    0.42
   8   2  -3   -0.09    0.37
   6  -2  -3    6.09    0.77
  -6  -2   3    6.77    0.80
   6  -2  -3    4.72    0.69
  -6  -2   3    6.14    0.75
  -6  -2   3    5.96    0.73
  -6   2   3    6.75    0.81
  -6   2   3    6.54    0.74
   6   2  -3    8.05    0.95
  -6   2   3    7.29    0.79
   6   2  -3    5.79    0.80
  -4  -2   3    2.15    0.38
  -4  -2   3    1.78    0.36
  -4  -2   3    1.78    0.37
   4   2  -3    2.39    0.42
   4   2  -3    2.39    0.45
   2  -2  -3   47.60    2.76
   2  -2  -3   46.59    3.39
  -2  -2   3   33.24    3.34
  -2  -2   3   36.97    2.77
  -2  -2   3   38.50    2.83
  -2  -2   3   38.48    2.87
   2   2  -3   39.94    2.82
  -2   2   3   37.79    2.72
   2   2  -3   40.37    2.94
  -2   2   3   38.74    2.82
  -2   2   3   37.30    2.82
   0  -2   3   25.98    1.75
   0  -2  -3   21.85    1.88
   0  -2  -3   25.34    1.75
   0  -2   3   24.46    1.80
   0   2  -3   24.76    1.79
   0   2  -3   25.06    1.86
  -2  -2  -3   46.19    3.54
   2  -2   3   48.43    3.39
  -2  -2  -3   46.28    3.40
   2  -2   3   47.56    3.28
  -2  -2  -3   43.88    3.50
  -2   2  -3   54.68    3.47
  -2   2  -3   48.10    3.33
  -2   2  -3   46.64    3.45
   4  -2   3   21.34    1.63
  -4  -2  -3   19.99    1.75
  -4  -2  -3   23.07    1.75
   4  -2   3   21.54    1.58
   4   2   3   22.75    1.59
  -4   2  -3   23.39    1.65
  -4   2  -3   22.35    1.72
  -4   2  -3   23.02    1.77
  -6  -2  -3    0.38    0.13
  -6  -2  -3    0.31    0.17
   6  -2   3    0.07    0.18
  -6  -2  -3    0.24    0.29
   6  -2   3    0.29    0.21
  -6   2  -3    0.66    0.33
  -6   2  -3    0.28    0.22
   6   2   3    0.42    0.25
  -6   2  -3    0.13    0.25
   6   2   3    0.16    0.20
  -8  -2  -3    0.98    0.46
   8  -2   3    2.32    0.50
   8  -2   3    2.78    0.51
  -8  -2  -3    2.23    0.35
   8   2   3    1.63    0.47
  -8   2  -3    2.93    0.65
  -8   2  -3    2.79    0.52
  -8   2  -3    0.92    0.40
 -10  -2  -3   -0.29    0.24
 -10  -2  -3    0.02    0.47
  10  -2   3   -0.24    0.40
 -10   2  -3    0.66    0.41
 -10   2  -3    0.40    0.52
 -10   2  -3   -0.05    0.43
 -12  -2  -3   -0.13    0.52
 -12  -2  -3   -0.63    0.27
  12  -2   3    0.87    0.62
 -12   2  -3   -0.34    0.53
 -12   2  -3   -0.05    0.51
 -12   2  -3   -0.51    0.44
 -11  -3   3    1.14    0.57
  11  -3  -3    0.73    0.59
  11  -3  -3    0.72    0.56
 -11  -3   3    1.14    0.48
 -11  -3   3    1.13    0.48
 -11   3   3    0.98    0.49
  11   3  -3    2.75    0.89
 -11   3   3    0.64    0.53
 -11   3   3    0.41    0.47
  -9  -3   3    4.14    0.65
  -9  -3   3    4.31    0.76
   9  -3  -3    3.67    0.70
   9  -3  -3    2.07    0.56
  -9  -3   3    2.22    0.55
  -9   3   3    3.72    0.69
   9   3  -3    3.94    0.87
  -9   3   3    4.65    0.80
  -9   3   3    2.76    0.62
  -7  -3   3    0.18    0.29
  -7  -3   3   -0.06    0.29
   7  -3  -3   -0.14    0.27
   7  -3  -3    0.88    0.35
  -7  -3   3    0.46    0.30
  -7   3   3    0.49    0.31
  -7   3   3    0.35    0.30
   7   3  -3    0.89    0.44
  -7   3   3    0.37    0.32
   7   3  -3   -0.03    0.39
   5  -3  -3    0.22    0.20
   5  -3  -3    0.24    0.22
  -5  -3   3    0.33    0.26
  -5  -3   3   -0.31    0.21
  -5  -3   3   -0.02    0.22
  -5   3   3    0.17    0.22
  -5   3   3    0.00    0.21
  -5   3   3    0.25    0.23
   5   3  -3    0.36    0.34
   5   3  -3   -0.03    0.27
   3  -3  -3    1.38    0.27
  -3  -3   3    0.29    0.26
  -3  -3   3    0.62    0.23
   3  -3  -3    0.37    0.20
   3  -3  -3    0.35    0.26
  -3  -3   3    0.23    0.25
  -3  -3   3    0.88    0.26
  -3   3   3    0.17    0.18
   3   3  -3    0.19    0.29
  -3   3   3    0.14    0.17
  -3   3   3    0.65    0.22
   3   3  -3    0.88    0.30
   1  -3  -3   62.75    4.14
   1  -3  -3   63.24    4.15
  -1  -3   3   61.33    4.22
  -1  -3   3   58.47    4.36
   1  -3  -3   72.39    5.29
   1  -3  -3   59.57    4.52
  -1   3   3   59.18    4.32
   1   3  -3   59.01    4.44
   1   3  -3   59.26    4.27
  -1  -3  -3    0.14    0.20
   1  -3   3    0.03    0.11
  -1  -3  -3    0.12    0.28
  -1  -3  -3    0.02    0.19
   1  -3   3    0.14    0.12
  -1   3  -3    0.25    0.20
  -1   3  -3    0.29    0.23
  -3  -3  -3   24.76    1.95
   3  -3   3   26.69    1.79
  -3  -3  -3   23.19    1.96
  -3  -3  -3   23.64    1.98
   3  -3   3   25.66    1.85
  -3   3  -3   26.31    1.88
  -3   3  -3   26.67    1.96
   5  -3   3    1.23    0.26
  -5  -3  -3    1.47    0.41
   5  -3   3    1.50    0.28
  -5   3  -3    0.84    0.29
  -5   3  -3    2.14    0.46
  -5   3  -3    1.54    0.37
   5   3   3    0.80    0.21
   7  -3   3   -0.14    0.22
   7  -3   3    0.50    0.27
  -7  -3  -3   -0.02    0.32
  -7   3  -3    0.49    0.33
   7   3   3    0.02    0.29
  -7   3  -3    0.16    0.33
  -7   3  -3    0.40    0.32
   9  -3   3    0.02    0.37
   9  -3   3    0.68    0.36
  -9  -3  -3    0.05    0.38
  -9   3  -3    0.21    0.44
  -9   3  -3   -0.38    0.33
  -9   3  -3    0.04    0.32
  11  -3   3    0.20    0.53
 -11  -3  -3    0.84    0.57
 -11   3  -3    1.36    0.61
 -11   3  -3    1.29    0.56
 -11   3  -3    1.59    0.68
 -10  -4   3    0.56    0.37
  10  -4  -3    1.00    0.48
  10  -4  -3    0.84    0.50
 -10  -4   3    0.18    0.35
 -10  -4   3    0.04    0.44
 -10   4   3   -0.15    0.47
  10   4  -3   -0.75    0.57
 -10   4   3    0.59    0.48
 -10   4   3    0.51    0.45
  -8  -4   3    8.84    0.92
   8  -4  -3    6.33    0.90
  -8  -4   3    7.32    0.89
   8  -4  -3    6.85    0.99
  -8  -4   3    8.04    1.10
  -8   4   3    7.22    0.96
   8   4  -3   10.02    1.28
  -8   4   3    8.77    1.08
  -8   4   3    8.75    1.04
  -6  -4   3    0.26    0.26
   6  -4  -3    1.22    0.33
  -6  -4   3    0.23    0.25
  -6  -4   3   -0.04    0.29
   6  -4  -3    1.03    0.29
  -6   4   3    1.16    0.35
   6   4  -3    0.68    0.42
   6   4  -3    0.34    0.34
  -6   4   3    0.34    0.29
  -6   4   3    0.29    0.30
  -4  -4   3    8.96    1.01
   4  -4  -3   11.41    1.14
   4  -4  -3    9.14    0.81
   4  -4  -3    8.95    0.84
  -4  -4   3    8.04    0.84
  -4  -4   3   10.15    0.91
   4   4  -3    8.66    1.02
  -4   4   3    9.84    0.89
  -4   4   3    6.81    0.84
   4   4  -3   10.21    1.01
  -4   4   3    7.60    0.87
   2  -4  -3   49.38    3.85
  -2  -4   3   47.59    4.47
   2  -4  -3   51.92    3.67
   2  -4  -3   51.41    3.67
  -2  -4   3   56.78    3.60
  -2  -4   3   59.05    3.78
  -2  -4   3   55.86    3.71
   2  -4  -3   48.68    4.48
   2  -4  -3   49.22    3.55
   2  -4  -3   50.01    3.55
  -2   4   3   48.15    3.56
  -2   4   3   51.58    3.70
   2   4  -3   53.49    3.68
   2   4  -3   57.00    3.85
   0  -4   3    9.35    0.73
   0  -4  -3   10.29    1.17
   0  -4   3    8.11    0.74
   0  -4  -3    8.39    0.88
   0   4  -3    9.81    0.84
   0   4  -3   10.35    0.97
  -2  -4  -3    4.01    0.57
  -2  -4  -3    4.00    0.55
   2  -4   3    4.98    0.46
   2  -4   3    5.16    0.44
  -2  -4  -3    4.35    0.64
  -2   4  -3    5.37    0.64
  -2   4  -3    5.36    0.60
  -4  -4  -3   31.19    2.48
  -4  -4  -3   31.40    2.49
   4  -4   3   32.36    2.37
   4  -4   3   32.04    2.29
   4  -4   3   32.32    2.29
  -4   4  -3   32.35    2.48
  -4   4  -3   34.53    2.40
   6  -4   3    1.49    0.33
   6  -4   3    1.04    0.32
  -6  -4  -3    1.07    0.42
  -6   4  -3    1.40    0.46
  -6   4  -3    1.88    0.44
  -6   4  -3    0.83    0.32
   8  -4   3    1.40    0.40
  -8  -4  -3    1.21    0.51
   8  -4   3    0.66    0.37
  -8   4  -3    0.61    0.44
  -8   4  -3    0.12    0.32
  -8   4  -3    0.79    0.46
  10  -4   3    2.38    0.63
 -10  -4  -3    2.63    0.71
  10  -4   3    1.57    0.58
 -10   4  -3    1.68    0.61
 -10   4  -3    0.47    0.58
 -10   4  -3    2.44    0.60
  11  -5  -3    0.67    0.51
 -11  -5   3   -0.06    0.34
  11  -5  -3    0.12    0.50
 -11  -5   3   -0.33    0.52
 -11   5   3    0.09    0.58
 -11   5   3   -0.53    0.46
 -11   5   3   -0.34    0.49
   9  -5  -3    0.20    0.42
  -9  -5   3   -0.02    0.41
  -9  -5   3   -0.24    0.29
  -9  -5   3   -0.01    0.29
   9  -5  -3    0.01    0.35
  -9   5   3   -0.01    0.37
  -9   5   3    0.19    0.41
  -9   5   3    0.19    0.46
   9   5  -3    1.00    0.63
   7  -5  -3    1.79    0.45
  -7  -5   3    2.30    0.46
  -7  -5   3    2.34    0.63
  -7  -5   3    2.04    0.42
   7  -5  -3    1.87    0.49
   7   5  -3    2.50    0.74
  -7   5   3    3.99    0.66
  -7   5   3    2.48    0.53
  -7   5   3    3.84    0.67
  -5  -5   3    0.35    0.22
  -5  -5   3    0.15    0.22
   5  -5  -3    0.76    0.31
   5  -5  -3    0.82    0.41
  -5  -5   3    0.56    0.37
   5  -5  -3    0.72    0.27
   5   5  -3    0.47    0.41
  -5   5   3    0.66    0.28
  -5   5   3    0.52    0.31
  -5   5   3    0.93    0.32
   5   5  -3    0.25    0.36
   3  -5  -3    0.78    0.31
   3  -5  -3    0.26    0.35
  -3  -5   3    0.90    0.24
  -3  -5   3    0.61    0.38
  -3  -5   3    0.55    0.33
   3  -5  -3    0.89    0.25
  -3  -5   3    1.27    0.25
   3  -5  -3    1.09    0.25
   3  -5  -3    1.19    0.29
   3  -5  -3    0.98    0.27
   3   5  -3    0.76    0.35
  -3   5   3    0.10    0.22
  -3   5   3    0.90    0.28
   3   5  -3    0.51    0.32
   1  -5  -3   12.38    1.24
  -1  -5   3   10.20    0.82
   1  -5  -3    9.48    0.94
  -1  -5   3   10.24    1.24
  -1  -5   3   10.67    0.84
  -1   5   3    9.43    0.88
   1   5  -3   12.60    1.07
   1   5  -3    9.56    1.04
  -1  -5  -3   -0.08    0.28
  -1  -5  -3   -0.11    0.20
   1  -5   3    0.12    0.12
   1  -5   3    0.14    0.11
  -1  -5  -3   -0.06    0.20
  -1   5  -3   -0.32    0.20
  -1   5  -3    0.23    0.26
  -3  -5  -3    3.51    0.58
  -3  -5  -3    2.10    0.45
  -3  -5  -3    2.48    0.40
   3  -5   3    2.33    0.34
   3  -5   3    2.89    0.35
  -3   5  -3    2.46    0.47
  -3   5  -3    2.31    0.43
  -5  -5  -3   -0.05    0.36
   5  -5   3    0.67    0.29
   5  -5   3    0.82    0.28
  -5   5  -3    0.73    0.34
  -5   5  -3    0.90    0.36
   7  -5   3    0.01    0.27
  -7  -5  -3    0.12    0.40
   7  -5   3   -0.01    0.29
  -7   5  -3    0.21    0.37
  -7   5  -3   -0.36    0.26
  -7   5  -3    0.30    0.39
  -7   5  -3   -0.02    0.39
  -9  -5  -3    0.74    0.55
   9  -5   3    0.62    0.43
   9  -5   3    0.23    0.41
  -9   5  -3    0.61    0.50
  -9   5  -3    0.24    0.48
  -9   5  -3    0.61    0.46
  11  -5   3    0.03    0.48
  11  -5   3   -0.42    0.46
 -11  -5  -3    0.02    0.53
 -11   5  -3    0.38    0.54
 -11   5  -3    0.12    0.62
 -11   5  -3   -0.61    0.45
 -10  -6   3    0.24    0.55
  10  -6  -3    1.10    0.50
  10  -6  -3   -0.35    0.40
 -10  -6   3    0.52    0.31
 -10   6   3    1.03    0.58
 -10   6   3    0.77    0.61
 -10   6   3   -0.41    0.45
   8  -6  -3    1.73    0.49
  -8  -6   3    3.34    0.75
  -8  -6   3    2.37    0.36
  -8  -6   3    2.11    0.42
   8  -6  -3    2.39    0.72
   8  -6  -3    2.08    0.57
  -8   6   3    2.44    0.64
  -8   6   3    2.84    0.63
  -8   6   3    2.30    0.63
  -6  -6   3    6.96    0.71
   6  -6  -3    8.26    1.09
   6  -6  -3    6.92    0.83
  -6  -6   3    5.69    0.63
   6  -6  -3    6.17    0.78
  -6  -6   3    7.96    1.08
  -6   6   3    5.91    0.85
  -6   6   3    5.91    0.83
  -6   6   3    7.89    0.98
   6   6  -3    5.38    0.97
  -6   6   3    6.55    0.87
  -4  -6   3   11.31    0.90
  -4  -6   3   11.09    1.38
  -4  -6   3   11.08    1.27
  -4  -6   3   11.44    0.90
   4  -6  -3    9.44    1.34
   4  -6  -3    8.73    0.95
   4  -6  -3    9.54    1.00
   4  -6  -3   10.09    1.11
   4   6  -3   14.15    1.28
  -4   6   3   12.47    1.11
   4   6  -3   14.30    1.38
  -4   6   3   10.41    1.12
   2  -6  -3   14.34    1.63
  -2  -6   3   16.02    1.68
   2  -6  -3   15.38    1.13
   2  -6  -3   13.27    1.30
  -2  -6   3   15.88    1.17
  -2  -6   3   15.86    1.19
   2  -6  -3   15.75    1.16
  -2   6   3   16.24    1.24
   2   6  -3   16.26    1.36
   2   6  -3   17.41    1.45
  -2   6   3   15.55    1.30
   0  -6   3    0.84    0.18
   0  -6   3    0.78    0.22
   0  -6  -3    0.73    0.44
   0  -6  -3    0.61    0.27
   0  -6   3    0.48    0.16
   0   6   3    0.68    0.22
   0   6  -3    0.32    0.30
   0   6  -3    0.91    0.31
  -2  -6  -3    2.65    0.51
   2  -6   3    2.10    0.34
  -2  -6  -3    2.89    0.45
   2  -6   3    2.44    0.32
  -2  -6  -3    1.79    0.49
  -2   6  -3    3.04    0.51
  -2   6  -3    2.88    0.53
  -4  -6  -3    4.70    0.74
   4  -6   3    3.95    0.55
  -4  -6  -3    4.09    0.70
   4  -6   3    4.15    0.53
  -4   6  -3    3.77    0.62
  -4   6  -3    4.66    0.70
   6  -6   3    4.60    0.66
   6  -6   3    4.41    0.69
  -6  -6  -3    7.09    1.00
  -6   6  -3    6.81    0.87
  -6   6  -3    4.67    0.79
   8  -6   3    3.38    0.68
   8  -6   3    2.44    0.57
  -8  -6  -3    2.54    0.75
  -8   6  -3    3.24    0.68
  -8   6  -3    3.39    0.72
  -8   6  -3    5.49    0.96
  -8   6  -3    3.28    0.74
 -10  -6  -3    0.42    0.56
  10  -6   3    1.41    0.55
  10  -6   3    1.06    0.62
 -10   6  -3    0.38    0.58
 -10   6  -3    1.13    0.58
 -10   6  -3    0.25    0.62
   9  -7  -3    1.22    0.48
  -9  -7   3   -0.21    0.52
   9  -7  -3    0.17    0.43
  -9  -7   3   -0.12    0.20
  -9   7   3    0.18    0.47
  -9   7   3   -0.56    0.51
  -9   7   3   -0.22    0.48
  -7  -7   3    0.26    0.22
   7  -7  -3    1.41    0.46
   7  -7  -3    0.62    0.37
  -7  -7   3    0.63    0.51
   7  -7  -3    0.81    0.56
  -7   7   3    0.73    0.48
  -7   7   3    0.45    0.44
   5  -7  -3    0.56    0.32
   5  -7  -3    0.73    0.30
   5  -7  -3    1.09    0.53
  -5  -7   3    0.68    0.47
  -5  -7   3    0.08    0.14
  -5  -7   3    0.18    0.18
   5  -7  -3   -0.02    0.36
   5   7  -3   -0.15    0.41
  -5   7   3   -0.17    0.30
  -3  -7   3    4.99    0.46
   3  -7  -3    4.41    0.48
   3  -7  -3    3.93    0.49
  -3  -7   3    3.81    0.80
  -3  -7   3    4.28    0.77
   3  -7  -3    5.13    0.93
   3  -7  -3    5.90    0.58
   3  -7  -3    4.65    0.62
  -3  -7   3    4.65    0.47
   3   7  -3    4.22    0.74
  -3   7   3    4.58    0.66
  -1  -7   3    8.45    0.70
   1  -7  -3    6.71    1.10
  -1  -7   3    7.87    1.18
  -1  -7   3    8.80    0.69
   1  -7  -3    9.26    0.91
  -1   7   3    8.17    0.87
   1   7  -3    8.67    1.04
   1   7  -3    8.47    0.95
   1  -7   3    0.18    0.17
   1  -7   3    0.07    0.14
  -1  -7  -3    0.18    0.35
  -1  -7  -3   -0.25    0.38
  -1  -7  -3    0.27    0.24
  -1   7  -3    0.06    0.30
  -1   7  -3    0.40    0.33
  -3  -7  -3    3.00    0.63
   3  -7   3    2.85    0.42
  -3  -7  -3    3.77    0.68
   3  -7   3    2.98    0.45
  -3  -7  -3    3.82    0.52
   3  -7   3    3.39    0.49
  -3   7  -3    2.85    0.61
  -3   7  -3    4.60    0.67
   5  -7   3    1.48    0.38
  -5  -7  -3    0.56    0.47
   5  -7   3    1.21    0.32
  -5   7  -3    0.56    0.44
  -5   7  -3    0.77    0.42
   7  -7   3    0.77    0.43
   7  -7   3    0.93    0.46
  -7  -7  -3    0.43    0.52
  -7   7  -3    1.22    0.52
  -7   7  -3    1.00    0.47
  -7   7  -3    3.10    0.76
   9  -7   3    0.29    0.42
   9  -7   3    0.23    0.49
  -9  -7  -3   -0.02    0.57
  -9   7  -3    0.65    0.54
  -9   7  -3    0.40    0.58
  -9   7  -3   -0.86    0.53
   8  -8  -3    2.20    0.76
   8  -8  -3    1.10    0.49
   8  -8  -3    1.32    0.52
  -8  -8   3    1.33    0.67
  -8   8   3    1.99    0.66
  -8   8   3    1.65    0.71
  -6  -8   3    0.31    0.15
   6  -8  -3    0.55    0.54
  -6  -8   3    0.72    0.53
   6  -8  -3    0.73    0.37
   6  -8  -3    0.95    0.36
  -6   8   3    0.81    0.46
  -4  -8   3    1.88    0.71
  -4  -8   3    2.89    0.69
   4  -8  -3    3.78    0.81
   4  -8  -3    2.62    0.42
   4  -8  -3    2.28    0.39
   4  -8  -3    2.76    0.53
  -4  -8   3    3.00    0.34
  -4   8   3    2.85    0.58
   4   8  -3    2.31    0.63
  -2  -8   3   12.94    0.92
  -2  -8   3   11.01    1.54
   2  -8  -3   11.60    1.59
   2  -8  -3   10.28    1.07
  -2  -8   3   12.17    0.92
   2   8  -3   10.19    1.26
   0  -8  -3   12.09    1.08
   0  -8   3   11.86    1.03
   0  -8   3   12.55    0.99
   0  -8  -3   11.96    1.64
   0  -8   3   12.21    0.95
   0  -8   3   11.35    1.61
   0   8  -3   12.70    1.34
   2  -8   3    9.54    0.89
   2  -8   3   10.00    0.85
  -2  -8  -3    8.14    0.94
  -2  -8  -3    9.79    1.15
  -2   8  -3   10.49    1.11
  -2   8  -3    9.46    1.15
   4  -8   3   12.79    1.14
  -4  -8  -3   14.37    1.59
  -4  -8  -3   14.28    1.51
   4  -8   3   12.41    1.19
  -4   8  -3   11.42    1.35
  -4   8  -3   15.67    1.56
   6  -8   3    1.58    0.51
  -6  -8  -3    0.69    0.57
   6  -8   3    1.11    0.39
  -6   8  -3    2.25    0.65
  -6   8  -3    0.87    0.51
   8  -8   3    0.12    0.42
  -8  -8  -3   -0.36    0.51
   8  -8   3    0.72    0.51
  -8   8  -3   -0.14    0.47
  -8   8  -3   -0.28    0.52
  -8   8  -3    0.70    0.54
  -7  -9   3    2.23    0.75
   7  -9  -3    2.02    0.53
   7  -9  -3    1.70    0.51
   7  -9  -3    2.24    0.82
  -7   9   3    3.13    0.72
  -7   9   3    2.41    0.76
   5  -9  -3   -0.16    0.28
   5  -9  -3   -0.15    0.26
   5  -9  -3    0.77    0.62
  -5  -9   3   -0.26    0.43
   3  -9  -3    1.09    0.65
  -3  -9   3    2.52    0.78
  -3  -9   3    2.62    0.30
  -1  -9   3    4.66    1.05
  -1  -9   3    5.66    0.56
   1  -9  -3    4.50    1.01
  -1  -9   3    5.47    0.57
   1  -9  -3    6.16    0.69
  -1  -9   3    6.36    0.58
   1   9  -3    5.20    0.86
   1  -9   3   -0.31    0.48
  -1  -9  -3    0.27    0.45
  -1  -9  -3    0.02    0.26
   1  -9   3    0.16    0.24
   1  -9   3    0.51    0.24
  -1   9  -3    0.90    0.48
   3  -9   3    2.74    0.50
   3  -9   3    2.66    0.45
  -3  -9  -3    3.11    0.69
  -3  -9  -3    2.32    0.68
  -3   9  -3    1.06    0.52
   5  -9   3    0.68    0.41
  -5  -9  -3    0.74    0.56
   5  -9   3    0.52    0.39
  -5   9  -3    0.98    0.56
  -5   9  -3    1.16    0.56
   7  -9   3    0.02    0.45
   7  -9   3   -0.26    0.39
  -7  -9  -3   -0.22    0.59
  -7   9  -3   -0.04    0.48
  -7   9  -3   -0.71    0.48
   6 -10  -3    4.72    1.14
  -6 -10   3    5.68    1.05
   6 -10  -3    2.95    0.56
   6 -10  -3    5.26    0.63
  -4 -10   3    2.37    0.82
   4 -10  -3    1.94    0.78
  -2 -10   3    0.28    0.18
   2 -10  -3    1.50    0.70
  -2 -10   3    0.21    0.57
   0 -10   3    8.95    0.82
   0 -10   3    9.30    1.58
   0 -10  -3    8.80    1.16
   0 -10   3    9.11    0.80
   0 -10  -3    6.90    1.38
   0  10  -3    8.14    1.13
  -2 -10  -3   11.00    1.32
   2 -10   3   10.00    1.01
   2 -10   3   10.51    1.65
   2 -10   3    8.14    0.94
  -2  10  -3   12.74    1.40
   4 -10   3   -0.04    0.63
  -4 -10  -3    0.51    0.50
   4 -10   3    0.23    0.36
   4 -10   3    0.18    0.34
  -4  10  -3   -1.09    0.48
   6 -10   3    2.55    0.62
   6 -10   3    1.80    0.58
  -6 -10  -3    1.56    0.72
  -6  10  -3    3.72    0.86
   5 -11  -3    0.69    0.72
   3 -11  -3    0.58    0.68
  -3 -11   3    0.94    0.70
   1 -11  -3    0.49    0.58
   1 -11  -3    0.94    0.75
  -1 -11   3    0.20    0.22
  -1 -11   3    0.89    0.68
   1 -11   3   -0.02    0.68
   1 -11   3    0.28    0.29
   1 -11   3   -0.43    0.28
  -1 -11  -3    0.23    0.55
   3 -11   3    0.14    0.36
   3 -11   3    0.11    0.35
  -3 -11  -3   -0.20    0.57
   3 -11   3   -0.53    0.59
  -3  11  -3    0.53    0.60
  -5 -11  -3   -0.08    0.55
   5 -11   3    0.51    0.43
   5 -11   3   -0.48    0.68
   5 -11   3   -0.06    0.41
  -5  11  -3   -0.35    0.58
   4 -12  -3    2.52    0.95
  -2 -12   3    1.73    0.82
   2 -12  -3    0.23    0.70
   0 -12  -3    2.92    0.84
   0 -12   3    2.13    0.96
  -2 -12  -3    1.13    0.75
   2 -12   3    0.94    0.90
   2 -12   3    1.20    0.39
   4 -12   3    1.19    0.51
   4 -12   3    2.90    1.09
 -12   0   4    3.01    0.78
 -12   0   4    2.69    0.74
  12   0  -4    4.04    0.99
 -12   0   4    6.36    0.97
  12   0  -4    3.20    0.85
 -10   0   4    8.77    1.09
 -10   0   4    5.79    0.92
  10   0  -4    7.98    1.12
 -10   0   4    7.26    1.00
  10   0  -4    6.14    1.06
   8   0  -4   74.27    5.19
  -8   0   4   71.27    5.12
  -8   0   4   71.79    5.29
   8   0  -4   72.96    5.39
  -8   0   4   69.78    5.20
  -6   0   4    4.15    0.59
  -6   0   4    4.39    0.57
   6   0  -4    5.07    0.70
   6   0  -4    4.10    0.67
  -6   0   4    4.15    0.61
  -4   0   4  383.77   27.53
  -4   0   4  415.42   27.05
  -4   0   4  399.10   26.59
   4   0  -4  389.88   27.57
   4   0  -4  395.53   26.61
   2   0  -4  138.08    9.12
  -2   0   4  133.39    9.09
  -2   0   4  139.05    9.42
   2   0  -4  130.60    9.45
  -2   0   4  131.52    9.19
   0   0   4  955.04   66.24
   0   0   4 1000.00   63.96
   0   0  -4  963.19   66.23
   0   0  -4  952.92   63.95
   0   0  -4  929.23   68.21
  -2   0  -4  148.52   10.18
  -2   0  -4  140.69    9.82
  -2   0  -4  146.66   10.07
  -2   0  -4  144.52   10.34
  -2   0  -4  146.29   10.17
  -2   0  -4  149.59   10.54
  -2   0  -4  148.54    9.84
   2   0   4  148.58   10.19
  -4   0  -4  392.62   27.10
   4   0   4  401.31   28.04
  -4   0  -4  400.67   28.06
   4   0   4  422.31   27.08
  -4   0  -4  401.88   28.91
  -4   0  -4  405.36   27.09
  -4   0  -4  409.42   27.73
  -4   0  -4  413.45   28.05
  -6   0  -4   13.95    1.13
  -6   0  -4   12.41    1.07
   6   0   4   13.80    1.08
  -6   0  -4   11.89    1.00
  -6   0  -4   13.32    1.34
   6   0   4   14.70    1.07
   8   0   4   57.04    4.12
  -8   0  -4   57.30    4.08
  -8   0  -4   55.21    4.21
  -8   0  -4   53.45    3.94
 -10   0  -4    0.01    0.32
 -10   0  -4    0.07    0.32
  10   0   4    0.40    0.45
 -10   0  -4   -0.10    0.42
 -12   0  -4   12.85    1.32
 -12   0  -4   10.26    1.55
 -12   0  -4   14.24    1.29
 -11  -1   4    0.30    0.47
 -11  -1   4    0.21    0.40
  11  -1  -4   -0.45    0.49
 -11  -1   4   -0.02    0.40
  11  -1  -4    0.10    0.51
  11   1  -4    0.85    0.65
  11   1  -4   -0.25    0.50
 -11   1   4    0.30    0.45
 -11   1   4    0.59    0.46
 -11   1   4    0.31    0.45
   9  -1  -4   -0.34    0.33
  -9  -1   4    0.18    0.35
  -9  -1   4    0.03    0.33
   9  -1  -4   -0.18    0.37
  -9  -1   4   -0.24    0.32
   9   1  -4   -0.35    0.41
  -9   1   4   -0.04    0.32
   9   1  -4    0.62    0.47
  -9   1   4   -0.47    0.31
  -9   1   4   -0.03    0.27
  -7  -1   4    1.84    0.46
  -7  -1   4    2.14    0.48
   7  -1  -4    2.61    0.54
   7  -1  -4    1.57    0.49
  -7  -1   4    2.13    0.45
  -7   1   4    2.31    0.45
   7   1  -4    2.43    0.54
   7   1  -4    1.29    0.50
  -7   1   4    2.28    0.51
  -7   1   4    1.73    0.44
  -5  -1   4    0.72    0.27
  -5  -1   4    0.29    0.24
  -5  -1   4    0.77    0.29
   5  -1  -4    0.53    0.28
   5  -1  -4    0.34    0.29
  -5   1   4    0.09    0.21
  -5   1   4    0.44    0.25
  -5   1   4    0.87    0.25
   5   1  -4    0.39    0.31
   5   1  -4    1.03    0.34
  -3  -1   4   42.36    3.18
   3  -1  -4   51.83    3.08
  -3  -1   4   44.76    3.07
  -3  -1   4   42.56    3.07
  -3   1   4   40.58    3.15
   3   1  -4   39.14    3.07
   3   1  -4   40.09    3.21
  -3   1   4   44.36    3.04
  -3   1   4   43.07    3.04
   1  -1  -4  338.39   22.95
  -1  -1   4  306.71   22.21
   1  -1  -4  380.25   22.98
  -1  -1   4  315.66   23.01
   1  -1  -4  353.48   22.19
   1   1  -4  300.01   23.02
  -1   1   4  342.31   22.18
  -1   1   4  342.58   22.97
   1   1  -4  301.70   22.23
   1  -1   4    5.07    0.51
  -1  -1  -4    5.35    0.52
   1  -1   4    5.26    0.54
   1   1   4    5.78    0.48
  -1   1  -4    5.24    0.56
  -1   1  -4    6.38    0.61
  -1   1  -4    5.64    0.54
  -1   1  -4    5.50    0.54
  -3  -1  -4    2.24    0.38
  -3  -1  -4    2.62    0.42
   3   1   4    2.93    0.29
  -5  -1  -4    0.47    0.15
  -5  -1  -4    1.05    0.17
   5  -1   4    0.70    0.19
   5  -1   4    0.58    0.17
  -5  -1  -4    0.76    0.31
  -5  -1  -4    0.57    0.18
  -5  -1  -4    0.44    0.15
   5  -1   4    0.84    0.20
  -5   1  -4    0.57    0.22
  -5   1  -4    0.44    0.26
   5   1   4    0.78    0.18
  -5   1  -4    1.02    0.27
   5   1   4    0.60    0.16
   5   1   4    0.67    0.17
   7  -1   4    0.11    0.20
   7  -1   4   -0.13    0.21
  -7  -1  -4   -0.12    0.18
  -7  -1  -4    0.08    0.28
  -7  -1  -4    0.08    0.20
  -7   1  -4    0.40    0.27
  -7   1  -4   -0.20    0.20
  -7   1  -4    0.47    0.35
   7   1   4    0.30    0.23
  -9  -1  -4    6.90    0.67
   9  -1   4    6.65    0.91
  -9  -1  -4    5.19    0.89
  -9  -1  -4    6.54    0.71
  -9   1  -4    4.98    0.76
  -9   1  -4    5.94    0.96
   9   1   4    6.62    0.90
  -9   1  -4    6.19    0.83
 -11  -1  -4    0.31    0.31
 -11  -1  -4    0.16    0.52
  11  -1   4    1.00    0.58
 -11   1  -4    0.41    0.44
 -11   1  -4    0.46    0.55
 -11   1  -4    0.47    0.42
  12  -2  -4   -0.21    0.58
 -12  -2   4    0.24    0.51
 -12  -2   4   -0.16    0.53
 -12  -2   4    0.24    0.47
  12  -2  -4   -0.39    0.48
 -12   2   4    0.34    0.52
  12   2  -4    0.74    0.77
 -12   2   4    0.84    0.58
 -12   2   4    0.59    0.52
 -10  -2   4   17.72    1.65
 -10  -2   4   14.74    1.66
  10  -2  -4   14.82    1.84
  10  -2  -4   19.68    1.90
 -10  -2   4   18.87    1.86
  10   2  -4   19.64    2.11
 -10   2   4   18.62    1.84
  10   2  -4   20.40    1.99
 -10   2   4   18.51    1.66
 -10   2   4   19.28    1.89
  -8  -2   4    2.53    0.55
  -8  -2   4    2.49    0.52
  -8  -2   4    1.10    0.39
   8  -2  -4    0.74    0.39
   8  -2  -4    1.57    0.52
   8   2  -4    0.49    0.46
  -8   2   4    1.60    0.44
  -8   2   4    1.69    0.44
   8   2  -4    1.10    0.50
  -8   2   4    1.67    0.51
   6  -2  -4  189.13   13.34
  -6  -2   4  207.34   13.81
   6  -2  -4  182.47   13.81
  -6  -2   4  193.56   13.34
  -6  -2   4  197.95   13.60
   6   2  -4  191.38   13.90
  -6   2   4  201.16   13.57
  -6   2   4  197.87   13.82
  -6   2   4  191.03   13.33
   6   2  -4  214.81   13.42
   4  -2  -4   42.39    3.37
  -4  -2   4   50.77    3.35
  -4  -2   4   49.52    3.31
   4  -2  -4   41.98    3.25
  -4  -2   4   48.91    3.41
   4  -2  -4   44.00    3.90
  -4   2   4   43.80    3.24
  -4   2   4   46.59    3.27
  -4   2   4   49.52    3.38
   4   2  -4   45.93    3.32
   4   2  -4   44.90    3.46
   2  -2  -4  519.45   32.49
  -2  -2   4  465.22   33.13
  -2  -2   4  473.23   32.53
   2  -2  -4  564.49   33.66
  -2  -2   4  482.90   33.69
   2   2  -4  447.52   33.73
  -2   2   4  471.71   32.47
  -2   2   4  466.82   33.63
   0  -2   4   35.51    2.49
   0  -2  -4   40.79    2.71
   0  -2   4   33.39    2.57
   0  -2  -4   33.54    2.48
   0   2  -4   33.59    2.52
  -2  -2  -4  426.57   32.42
  -2  -2  -4  439.33   33.01
  -2  -2  -4  461.82   31.55
   2  -2   4  463.21   32.02
   2  -2   4  483.86   30.93
  -2   2  -4  464.66   32.08
  -2   2  -4  504.96   32.94
  -2   2  -4  459.78   30.96
   4  -2   4   14.55    1.09
  -4  -2  -4   14.29    1.23
  -4  -2  -4   14.54    1.27
   4  -2   4   15.34    1.12
  -4   2  -4   13.09    1.20
  -4   2  -4   14.12    1.16
   4   2   4   15.10    1.07
  -4   2  -4   14.29    1.26
   6  -2   4  231.35   16.42
   6  -2   4  225.05   15.86
  -6  -2  -4  239.66   16.33
  -6   2  -4  241.34   15.93
  -6   2  -4  242.79   16.35
   6   2   4  237.26   16.39
  -6   2  -4  236.76   16.50
   8  -2   4    3.39    0.55
  -8  -2  -4    2.73    0.37
   8  -2   4    3.37    0.59
  -8  -2  -4    3.40    0.68
  -8   2  -4    4.42    0.78
  -8   2  -4    3.87    0.62
  -8   2  -4    3.64    0.58
 -10  -2  -4   16.92    1.27
  10  -2   4   14.22    1.65
 -10  -2  -4   15.17    1.79
 -10   2  -4   16.27    1.85
 -10   2  -4   18.26    1.72
 -10   2  -4   16.58    1.64
 -12  -2  -4    1.26    0.70
  12  -2   4    0.39    0.61
 -12   2  -4    0.33    0.67
 -12   2  -4    0.18    0.47
 -12   2  -4    1.00    0.58
  11  -3  -4    0.16    0.47
 -11  -3   4    1.39    0.56
 -11  -3   4    0.83    0.50
 -11  -3   4    0.91    0.54
  11  -3  -4    0.63    0.57
 -11   3   4    1.29    0.59
 -11   3   4    1.57    0.56
  11   3  -4    1.41    0.76
 -11   3   4    0.84    0.55
   9  -3  -4    0.41    0.42
  -9  -3   4    1.74    0.53
  -9  -3   4    2.30    0.52
   9  -3  -4    1.90    0.58
  -9  -3   4    1.04    0.50
   9   3  -4    1.63    0.62
   9   3  -4    1.78    0.66
  -9   3   4    1.63    0.57
  -9   3   4    2.36    0.56
  -9   3   4    2.96    0.60
  -7  -3   4    0.32    0.30
  -7  -3   4    0.41    0.34
   7  -3  -4   -0.18    0.26
  -7  -3   4   -0.37    0.24
   7  -3  -4   -0.05    0.31
   7  -3  -4    0.05    0.32
  -7   3   4    0.12    0.27
   7   3  -4   -0.23    0.34
  -7   3   4    0.13    0.29
   7   3  -4   -0.04    0.34
  -7   3   4    0.02    0.30
  -5  -3   4    0.62    0.30
  -5  -3   4    1.48    0.38
  -5  -3   4    0.63    0.33
   5   3  -4    0.72    0.34
  -5   3   4    1.91    0.39
   5   3  -4    0.28    0.37
  -5   3   4    1.34    0.31
  -5   3   4    1.89    0.35
  -3  -3   4    0.39    0.26
   3  -3  -4    0.07    0.24
  -3  -3   4    0.16    0.27
  -3  -3   4    0.49    0.25
  -3  -3   4    0.50    0.25
   3  -3  -4    0.52    0.22
   3  -3  -4    0.60    0.24
  -3   3   4    0.41    0.20
  -3   3   4    0.20    0.19
   3   3  -4    0.08    0.28
   3   3  -4    0.24    0.32
  -1  -3   4   62.82    4.14
  -1  -3   4   57.39    4.26
   1  -3  -4   60.31    4.43
   1   3  -4   58.16    4.36
   1   3  -4   60.68    4.19
  -1   3   4   59.05    4.20
   1  -3   4  161.03   10.44
  -1  -3  -4  155.24   10.65
  -1  -3  -4  154.89   11.01
   1  -3   4  155.30   10.81
  -1  -3  -4  156.60   11.19
  -1   3  -4  155.12   11.07
  -1   3  -4  155.69   10.50
  -1   3  -4  146.46   10.87
  -3  -3  -4   11.17    1.02
   3  -3   4   11.18    0.87
  -3  -3  -4   10.48    1.01
  -3  -3  -4   11.66    1.09
   3  -3   4   11.71    0.91
  -3   3  -4   10.29    0.96
  -3   3  -4   11.70    1.02
   5  -3   4    4.99    0.57
   5  -3   4    5.93    0.60
  -5  -3  -4    6.11    0.70
   5  -3   4    5.85    0.59
  -5  -3  -4    5.80    0.78
  -5   3  -4    5.68    0.68
  -5   3  -4    5.17    0.69
  -5   3  -4    6.88    0.85
   5   3   4    5.82    0.52
   7  -3   4    0.70    0.29
  -7  -3  -4    0.67    0.38
   7  -3   4    0.62    0.26
  -7   3  -4    0.46    0.30
  -7   3  -4    0.90    0.38
  -7   3  -4    0.93    0.43
   9  -3   4    0.16    0.36
   9  -3   4    0.43    0.37
  -9  -3  -4   -0.01    0.38
  -9   3  -4   -0.20    0.31
  -9   3  -4    0.38    0.48
  -9   3  -4   -0.33    0.33
 -11  -3  -4    1.00    0.64
  11  -3   4    1.94    0.61
 -11   3  -4    0.69    0.51
 -11   3  -4    1.23    0.72
 -11   3  -4    0.75    0.61
 -10  -4   4    0.32    0.37
  10  -4  -4    1.23    0.55
 -10  -4   4    0.69    0.41
  10  -4  -4   -0.30    0.36
 -10  -4   4    0.46    0.51
 -10   4   4    0.18    0.43
  10   4  -4    1.03    0.72
 -10   4   4    0.45    0.42
 -10   4   4   -0.22    0.48
  -8  -4   4   61.80    4.41
   8  -4  -4   52.04    4.29
  -8  -4   4   59.71    4.31
   8  -4  -4   60.00    4.50
  -8  -4   4   58.79    4.49
  -8   4   4   58.10    4.40
  -8   4   4   61.27    4.53
   8   4  -4   58.80    4.67
  -8   4   4   65.95    4.39
  -6  -4   4   12.22    1.13
   6  -4  -4    8.42    1.02
  -6  -4   4   11.58    1.19
   6  -4  -4    7.71    0.98
   6  -4  -4    9.39    1.15
  -6  -4   4   10.37    1.04
   6   4  -4   12.08    1.23
  -6   4   4    8.64    1.01
  -6   4   4    9.68    1.08
  -6   4   4   10.22    1.04
   6   4  -4   11.41    1.27
   4  -4  -4  202.28   12.45
  -4  -4   4  176.63   12.90
  -4  -4   4  170.91   12.78
  -4  -4   4  161.65   15.35
   4  -4  -4  211.36   12.91
  -4  -4   4  183.25   12.49
   4  -4  -4  216.96   15.40
  -4   4   4  169.97   12.90
  -4   4   4  188.60   12.46
   4   4  -4  176.33   12.56
  -4   4   4  178.16   12.90
   4   4  -4  173.30   13.02
  -2  -4   4    7.34    0.79
  -2  -4   4    7.58    0.79
  -2  -4   4    8.37    0.91
  -2  -4   4    6.47    0.94
  -2   4   4   10.52    0.76
   2   4  -4    9.51    1.00
   2   4  -4    8.04    0.89
   0  -4   4  235.56   15.52
   0  -4   4  232.05   16.06
   0  -4  -4  224.72   16.58
   0   4  -4  232.23   16.17
   0   4  -4  231.21   15.59
   2  -4   4    0.13    0.13
  -2  -4  -4    0.54    0.27
   2  -4   4    0.31    0.14
  -2  -4  -4    0.53    0.32
  -2  -4  -4    0.32    0.23
  -2   4  -4    0.68    0.26
  -2   4  -4    1.43    0.32
   4  -4   4  399.69   25.62
  -4  -4  -4  386.95   26.26
   4  -4   4  375.85   26.50
  -4  -4  -4  355.26   27.34
  -4  -4  -4  376.52   26.95
  -4   4  -4  395.22   26.64
  -4   4  -4  392.36   25.71
   6  -4   4    5.39    0.62
  -6  -4  -4    4.43    0.77
   6  -4   4    6.37    0.69
  -6   4  -4    5.32    0.84
  -6   4  -4    5.11    0.74
  -6   4  -4    6.14    0.73
   8  -4   4   36.69    3.15
   8  -4   4   43.38    3.32
  -8  -4  -4   45.16    3.46
  -8   4  -4   43.81    3.48
  -8   4  -4   45.91    3.42
  -8   4  -4   47.14    3.30
  10  -4   4    1.45    0.53
 -10  -4  -4    0.37    0.52
  10  -4   4    0.63    0.51
 -10   4  -4    1.21    0.57
 -10   4  -4    1.62    0.57
 -10   4  -4    1.73    0.72
 -11  -5   4    0.12    0.40
 -11  -5   4   -0.38    0.36
  11  -5  -4    0.07    0.49
 -11  -5   4   -0.04    0.52
  11  -5  -4   -0.18    0.46
 -11   5   4   -0.30    0.51
 -11   5   4    0.80    0.65
 -11   5   4    0.55    0.54
   9  -5  -4    0.54    0.42
  -9  -5   4   -0.07    0.31
   9  -5  -4   -0.10    0.40
  -9  -5   4    0.49    0.36
  -9  -5   4    0.01    0.48
  -9   5   4    1.48    0.52
  -9   5   4   -0.04    0.47
   9   5  -4    1.17    0.73
  -9   5   4    0.07    0.43
  -7  -5   4    2.61    0.62
   7  -5  -4    1.69    0.46
   7  -5  -4    1.43    0.48
   7  -5  -4    2.34    0.57
  -7  -5   4    3.02    0.51
  -7  -5   4    2.61    0.49
  -7   5   4    2.11    0.57
  -7   5   4    2.91    0.56
   7   5  -4    2.94    0.72
  -7   5   4    3.12    0.61
   5  -5  -4   16.92    1.30
   5  -5  -4   16.10    1.25
  -5  -5   4   13.49    1.21
  -5  -5   4   15.17    1.26
  -5  -5   4   12.75    1.45
   5  -5  -4   14.57    1.52
  -5   5   4   12.83    1.28
  -5   5   4   14.46    1.27
   5   5  -4   13.73    1.55
  -5   5   4   15.14    1.35
  -5   5   4   13.50    1.26
   5   5  -4   15.25    1.50
   3  -5  -4   20.95    1.56
   3  -5  -4   19.12    1.53
   3  -5  -4   19.64    1.59
   3  -5  -4   21.10    1.60
  -3  -5   4   23.78    1.65
  -3  -5   4   22.76    1.61
   3  -5  -4   19.12    1.76
  -3  -5   4   21.11    2.04
   3  -5  -4   19.14    2.01
  -3  -5   4   22.02    1.77
  -3   5   4   21.87    1.60
   3   5  -4   22.95    1.75
   3   5  -4   22.53    1.85
  -3   5   4   19.98    1.66
  -1  -5   4    7.65    0.73
   1  -5  -4    8.27    0.90
   1  -5  -4    9.70    1.16
  -1  -5   4    7.33    0.70
  -1   5   4    7.60    0.72
   1   5  -4    9.27    0.91
   1   5  -4    9.97    1.01
   1  -5   4   25.44    1.74
  -1  -5  -4   24.46    1.94
   1  -5   4   23.46    1.78
  -1  -5  -4   23.07    1.99
  -1  -5  -4   23.42    1.87
  -1   5  -4   23.98    1.96
  -1   5  -4   23.86    1.88
   3  -5   4    9.13    0.77
   3  -5   4    9.26    0.75
  -3  -5  -4    9.83    0.98
  -3  -5  -4    9.11    1.06
  -3  -5  -4    8.93    0.99
  -3   5  -4    8.66    0.95
  -3   5  -4    8.09    0.98
  -5  -5  -4    0.53    0.41
   5  -5   4    0.41    0.22
   5  -5   4    0.00    0.16
   5  -5   4    0.04    0.19
  -5   5  -4    0.19    0.30
  -5   5  -4   -0.16    0.26
  -7  -5  -4    5.01    0.87
   7  -5   4    3.06    0.58
   7  -5   4    3.32    0.56
  -7   5  -4    4.00    0.72
  -7   5  -4    4.49    0.71
  -7   5  -4    4.76    0.85
  -7   5  -4    4.74    0.77
   9  -5   4    1.19    0.51
  -9  -5  -4    0.70    0.57
   9  -5   4    0.74    0.42
  -9   5  -4    0.29    0.42
  -9   5  -4    0.09    0.49
  -9   5  -4    1.37    0.60
 -11  -5  -4    0.16    0.57
  11  -5   4    0.42    0.54
  11  -5   4    0.64    0.57
 -11   5  -4    0.11    0.57
 -11   5  -4   -0.49    0.45
 -11   5  -4   -0.10    0.60
 -10  -6   4    7.38    0.92
 -10  -6   4    7.90    1.25
 -10  -6   4    9.79    0.88
  10  -6  -4    7.59    1.13
  10  -6  -4    6.46    1.07
 -10   6   4   11.81    1.46
 -10   6   4   10.96    1.32
 -10   6   4   11.44    1.38
   8  -6  -4    6.18    0.99
  -8  -6   4    6.13    1.02
   8  -6  -4    6.23    0.90
   8  -6  -4    4.88    0.80
  -8  -6   4    6.58    0.71
  -8  -6   4    5.61    0.73
  -8   6   4    6.84    0.95
  -8   6   4    6.28    0.90
   8   6  -4    7.72    1.22
  -8   6   4    7.88    1.08
   6  -6  -4  101.97    6.42
  -6  -6   4   86.27    6.13
   6  -6  -4   92.30    6.18
  -6  -6   4   79.11    6.26
   6  -6  -4   94.45    7.64
  -6  -6   4   79.80    6.42
  -6   6   4   83.47    6.33
  -6   6   4   90.63    6.24
   6   6  -4   93.58    6.63
  -6   6   4   86.92    6.46
  -4  -6   4   -0.18    0.19
  -4  -6   4    0.55    0.25
   4  -6  -4    0.25    0.35
  -4  -6   4    0.85    0.41
  -4  -6   4   -0.34    0.35
  -4   6   4    0.19    0.26
   4   6  -4    0.46    0.36
   4   6  -4    0.28    0.39
   2  -6  -4  141.23   10.33
  -2  -6   4  133.54   12.05
  -2  -6   4  144.92    9.96
  -2  -6   4  147.16    9.65
   2   6  -4  149.45   10.19
   2   6  -4  140.82    9.78
  -2   6   4  140.70    9.99
   0  -6   4    0.18    0.15
   0  -6  -4    0.13    0.37
   0  -6  -4    0.24    0.26
   0  -6   4    0.40    0.17
   0   6  -4    0.31    0.30
   0   6  -4    0.46    0.29
  -2  -6  -4  180.26   12.34
   2  -6   4  175.09   11.94
   2  -6   4  176.78   12.35
  -2  -6  -4  174.97   12.80
  -2  -6  -4  176.90   12.68
  -2   6  -4  183.23   12.09
  -2   6  -4  176.01   12.54
   4  -6   4   21.90    1.70
  -4  -6  -4   19.55    1.79
   4  -6   4   21.78    1.64
  -4  -6  -4   25.44    1.99
  -4  -6  -4   23.40    1.92
   4  -6   4   22.15    1.64
  -4   6  -4   22.99    1.91
  -4   6  -4   19.87    1.78
  -6  -6  -4   64.77    4.94
   6  -6   4   63.28    4.77
   6  -6   4   60.68    4.58
  -6   6  -4   68.62    4.73
  -6   6  -4   71.13    4.94
  -8  -6  -4    0.17    0.56
   8  -6   4    1.54    0.43
   8  -6   4    1.19    0.48
  -8   6  -4    2.32    0.61
  -8   6  -4    1.57    0.57
  -8   6  -4    2.13    0.70
  -8   6  -4    0.99    0.48
  10  -6   4    8.80    1.28
 -10  -6  -4   13.82    1.70
  10  -6   4   11.25    1.49
 -10   6  -4   12.63    1.52
 -10   6  -4   14.79    1.78
 -10   6  -4   15.59    1.64
  -9  -7   4    0.37    0.28
   9  -7  -4    0.30    0.44
  -9  -7   4    0.21    0.53
   9  -7  -4   -0.07    0.42
  -9   7   4    0.31    0.58
  -9   7   4    0.41    0.45
  -7  -7   4   -0.19    0.21
   7  -7  -4    0.07    0.48
  -7  -7   4   -0.70    0.36
   7  -7  -4   -0.18    0.36
  -7  -7   4    0.15    0.21
   7  -7  -4   -0.03    0.33
  -7   7   4   -0.07    0.37
  -7   7   4    0.40    0.47
   7   7  -4    0.22    0.63
   5  -7  -4    0.14    0.25
  -5  -7   4    0.09    0.22
  -5  -7   4   -0.16    0.36
   5  -7  -4    0.81    0.32
   5  -7  -4    0.12    0.38
  -5  -7   4   -0.17    0.18
   5  -7  -4    1.05    0.49
   5   7  -4   -0.09    0.43
  -5   7   4    0.23    0.35
  -3  -7   4    1.50    0.30
  -3  -7   4    1.77    0.30
   3  -7  -4    1.81    0.47
   3  -7  -4    2.19    0.61
   3  -7  -4    1.89    0.27
   3  -7  -4    1.65    0.29
  -3  -7   4    2.84    0.66
   3   7  -4    2.64    0.58
   3   7  -4    1.09    0.48
  -3   7   4    1.81    0.43
  -1  -7   4    6.03    0.60
  -1  -7   4    6.15    1.01
   1  -7  -4    6.64    1.04
   1  -7  -4    7.16    0.80
  -1  -7   4    6.15    0.61
   1   7  -4    6.71    0.91
   1   7  -4    5.91    0.82
   1  -7   4   10.87    0.89
  -1  -7  -4   11.01    1.04
   1  -7   4   11.06    0.92
  -1  -7  -4    9.37    1.19
  -1   7  -4   13.66    1.34
  -1   7  -4   12.57    1.25
  -3  -7  -4    2.81    0.65
   3  -7   4    3.49    0.47
   3  -7   4    2.50    0.40
   3  -7   4    2.55    0.39
  -3  -7  -4    2.69    0.48
  -3  -7  -4    2.62    0.59
  -3   7  -4    2.69    0.58
  -3   7  -4    3.03    0.61
   5  -7   4    0.66    0.31
   5  -7   4    1.01    0.34
  -5  -7  -4    0.85    0.50
  -5   7  -4    1.79    0.54
  -5   7  -4    1.30    0.49
   7  -7   4   -0.07    0.31
   7  -7   4    0.75    0.42
  -7  -7  -4   -0.24    0.47
  -7   7  -4    0.70    0.47
  -7   7  -4    1.12    0.58
  -7   7  -4    0.29    0.46
   9  -7   4   -0.34    0.44
  -9  -7  -4    0.37    0.62
   9  -7   4    0.29    0.44
  -9   7  -4   -0.29    0.46
  -9   7  -4   -0.44    0.47
  -9   7  -4   -0.14    0.48
  -9   7  -4    0.93    0.64
   8  -8  -4   13.34    1.69
  -8  -8   4   10.27    1.51
   8  -8  -4   10.21    1.20
  -8  -8   4    9.61    0.88
   8  -8  -4   11.94    1.26
  -8   8   4   14.22    1.59
  -8   8   4   13.44    1.49
  -6  -8   4    6.42    0.66
  -6  -8   4    5.97    1.07
   6  -8  -4    6.53    0.81
   6  -8  -4    7.56    0.98
   6  -8  -4    5.97    1.10
   6  -8  -4    7.19    0.83
  -6   8   4    8.00    1.04
  -6   8   4    7.09    1.03
  -4  -8   4   84.85    5.64
   4  -8  -4   88.93    7.09
   4  -8  -4   80.64    5.97
   4  -8  -4   68.06    5.47
  -4  -8   4   72.07    7.03
  -4  -8   4   84.24    5.49
  -4  -8   4   85.24    5.99
   4   8  -4   82.71    6.02
   2  -8  -4    1.56    0.63
  -2  -8   4    2.34    0.34
   2  -8  -4    2.27    0.48
  -2  -8   4    2.34    0.32
  -2  -8   4    2.04    0.68
   2   8  -4    2.67    0.62
   0  -8   4   45.77    4.69
   0  -8   4   51.72    3.67
   0  -8   4   56.11    3.58
   0  -8  -4   49.75    4.72
   0  -8  -4   50.70    3.86
   0   8  -4   50.95    3.94
   0   8  -4   50.92    3.77
   2  -8   4   -0.17    0.18
   2  -8   4   -0.06    0.18
   2  -8   4    0.07    0.18
  -2  -8  -4    0.26    0.43
  -2  -8  -4    0.22    0.28
  -2   8  -4    0.01    0.33
  -2   8  -4    0.04    0.38
  -4  -8  -4   61.49    4.61
  -4  -8  -4   62.69    4.57
   4  -8   4   55.21    4.34
   4  -8   4   60.49    4.20
  -4   8  -4   57.35    4.34
  -4   8  -4   60.47    4.55
  -6  -8  -4    8.13    1.25
   6  -8   4    9.18    1.00
   6  -8   4    6.55    0.96
  -6   8  -4   10.22    1.27
  -6   8  -4    7.31    1.06
   8  -8   4   19.57    1.86
   8  -8   4   21.72    2.00
  -8  -8  -4   20.70    2.33
  -8   8  -4   20.76    2.24
  -8   8  -4   26.42    2.12
  -8   8  -4   21.73    2.38
   7  -9  -4    0.89    0.40
  -7  -9   4    0.24    0.55
   7  -9  -4    0.07    0.39
   7  -9  -4    0.54    0.67
  -7   9   4    0.08    0.50
  -7   9   4   -0.04    0.48
  -7   9   4    1.13    0.64
  -5  -9   4    0.22    0.16
   5  -9  -4   -0.28    0.48
   5  -9  -4   -0.08    0.24
  -5  -9   4    0.45    0.49
   3  -9  -4    1.46    0.64
  -3  -9   4    0.42    0.17
  -3  -9   4   -0.29    0.46
  -3  -9   4    0.34    0.18
   3   9  -4    0.26    0.49
   1  -9  -4    4.73    0.65
  -1  -9   4    5.60    0.56
  -1  -9   4    5.16    0.53
   1  -9  -4    3.81    0.99
  -1  -9   4    3.92    0.97
   1   9  -4    5.52    0.90
  -1  -9  -4    1.58    0.44
   1  -9   4    2.60    0.40
   1  -9   4    2.55    0.40
   1  -9   4    2.15    0.37
   1  -9   4    3.52    0.91
  -1  -9  -4    2.19    0.63
  -1   9  -4    3.56    0.73
  -3  -9  -4    0.74    0.36
   3  -9   4    0.06    0.28
  -3  -9  -4    0.60    0.54
  -3  -9  -4    0.53    0.46
   3  -9   4    0.17    0.25
  -3   9  -4    0.73    0.46
  -3   9  -4    0.27    0.44
  -5  -9  -4   -0.16    0.45
   5  -9   4    0.34    0.34
   5  -9   4    0.19    0.35
  -5   9  -4    0.21    0.48
  -5   9  -4    0.75    0.53
   7  -9   4    0.28    0.43
   7  -9   4   -0.13    0.41
  -7  -9  -4    0.97    0.67
  -7   9  -4    1.14    0.62
  -7   9  -4    0.47    0.55
   6 -10  -4    9.35    0.96
  -6 -10   4   11.67    1.53
   6 -10  -4   11.85    1.72
  -4 -10   4    1.68    0.25
  -4 -10   4    1.22    0.71
   4 -10  -4    1.21    0.75
  -2 -10   4   16.09    1.26
  -2 -10   4   16.36    1.24
   2 -10  -4   14.54    2.07
  -2 -10   4   16.22    2.13
  -2 -10   4   17.53    1.25
   0 -10   4    2.98    0.45
   0 -10  -4    2.61    0.75
   0 -10   4    2.74    0.45
   0 -10  -4    3.67    0.55
   0 -10   4    3.04    0.43
   0 -10   4    2.67    0.90
   0  10  -4    1.78    0.61
  -2 -10  -4   45.10    3.51
   2 -10   4   39.33    4.16
   2 -10   4   44.70    3.12
  -2 -10  -4   44.34    3.32
   2 -10   4   42.04    3.20
  -2  10  -4   40.53    3.47
  -4 -10  -4    2.55    0.72
  -4 -10  -4    3.46    0.89
   4 -10   4    1.37    0.42
   4 -10   4    1.71    0.48
  -4  10  -4    2.54    0.77
   6 -10   4   13.74    1.51
   6 -10   4   15.05    1.58
  -6 -10  -4   14.90    1.87
  -6  10  -4   18.59    1.92
   5 -11  -4   -0.09    0.63
  -3 -11   4    1.67    0.78
   3 -11  -4    0.99    0.75
  -1 -11   4    2.09    0.37
   1 -11  -4    1.24    0.77
  -1 -11   4    2.23    0.85
   1 -11  -4    1.79    0.73
   1 -11   4    0.26    0.32
   1 -11   4   -0.20    0.67
   1 -11   4    0.41    0.29
  -1 -11  -4    0.42    0.60
  -3 -11  -4    0.31    0.62
   3 -11   4   -0.37    0.31
   3 -11   4    0.68    0.41
   3 -11   4    0.08    0.72
  -3  11  -4    1.70    0.72
   5 -11   4   -0.19    0.73
   5 -11   4   -0.26    0.41
  -5 -11  -4   -0.13    0.60
   5 -11   4   -0.33    0.38
  -5  11  -4    0.13    0.60
   2 -12  -4    2.06    0.91
  -2 -12   4    0.86    0.77
   0 -12  -4    9.30    1.33
   0 -12   4    8.68    0.86
   0 -12   4    9.89    1.73
   2 -12   4    1.49    0.45
   2 -12   4    1.54    0.44
  -2 -12  -4    1.62    0.83
   2 -12   4    1.01    0.91
 -12   0   5   -0.14    0.43
  12   0  -5   -0.30    0.58
 -12   0   5   -0.26    0.47
  12   0  -5   -0.64    0.51
 -12   0   5    0.52    0.56
 -10   0   5   -0.15    0.37
 -10   0   5   -0.32    0.34
 -10   0   5    0.30    0.41
  10   0  -5    0.02    0.51
  10   0  -5    0.23    0.45
   8   0  -5    0.19    0.35
   8   0  -5    0.56    0.41
  -8   0   5   -0.21    0.29
  -8   0   5   -0.20    0.27
  -8   0   5    0.23    0.30
   6   0  -5   -0.09    0.26
  -6   0   5   -0.37    0.20
   6   0  -5   -0.32    0.28
  -6   0   5   -0.17    0.21
  -6   0   5    0.03    0.25
  -4   0   5   -0.21    0.18
   4   0  -5    0.22    0.24
   4   0  -5   -0.23    0.25
  -4   0   5   -0.16    0.17
  -4   0   5   -0.15    0.20
   2   0  -5    0.34    0.23
   2   0  -5    0.30    0.24
  -2   0   5    0.27    0.19
  -2   0   5   -0.03    0.12
  -2   0   5   -0.11    0.16
   0   0   5    0.06    0.15
   0   0  -5   -0.28    0.14
   0   0  -5   -0.18    0.09
   0   0  -5   -0.10    0.15
   0   0  -5    0.22    0.26
   0   0   5   -0.07    0.15
  -2   0  -5    0.03    0.12
  -2   0  -5    0.29    0.24
  -2   0  -5    0.12    0.12
  -2   0  -5   -0.13    0.14
   2   0   5   -0.04    0.13
  -2   0  -5   -0.01    0.13
  -2   0  -5   -0.04    0.11
  -2   0  -5   -0.11    0.20
  -4   0  -5   -0.04    0.14
  -4   0  -5    0.35    0.16
   4   0   5    0.07    0.11
  -4   0  -5   -0.28    0.17
   4   0   5    0.28    0.13
  -4   0  -5    0.25    0.14
  -4   0  -5    0.19    0.15
  -4   0  -5    0.28    0.18
  -6   0  -5   -0.08    0.17
   6   0   5    0.15    0.15
  -6   0  -5    0.03    0.19
   6   0   5    0.07    0.16
  -6   0  -5   -0.17    0.17
   6   0   5   -0.02    0.15
  -6   0  -5    0.29    0.27
  -6   0  -5    0.36    0.21
  -8   0  -5   -0.08    0.25
  -8   0  -5   -0.17    0.33
   8   0   5   -0.02    0.27
  -8   0  -5    0.44    0.25
  10   0   5   -0.08    0.41
 -10   0  -5    0.33    0.32
 -10   0  -5   -0.67    0.38
 -10   0  -5    0.42    0.33
 -12   0  -5    0.13    0.57
 -12   0  -5    0.05    0.37
 -11  -1   5    0.22    0.46
  11  -1  -5    0.18    0.46
 -11  -1   5    0.60    0.46
  11  -1  -5   -0.01    0.50
 -11  -1   5   -0.20    0.44
  11   1  -5   -0.47    0.47
 -11   1   5    1.28    0.53
 -11   1   5   -0.02    0.46
 -11   1   5    0.52    0.44
  11   1  -5    0.03    0.55
  -9  -1   5    0.96    0.45
   9  -1  -5    1.73    0.60
  -9  -1   5    1.20    0.46
   9  -1  -5    1.27    0.49
  -9  -1   5    1.58    0.48
  -9   1   5    0.28    0.42
  -9   1   5    0.17    0.39
   9   1  -5    0.35    0.53
  -9   1   5    0.85    0.38
   9   1  -5    0.19    0.44
  -7  -1   5    4.21    0.64
   7  -1  -5    2.81    0.60
  -7  -1   5    3.25    0.61
   7  -1  -5    4.26    0.73
  -7  -1   5    4.37    0.65
  -7   1   5    4.70    0.72
  -7   1   5    4.57    0.61
  -7   1   5    4.39    0.66
   7   1  -5    4.75    0.80
   7   1  -5    5.17    0.76
   5  -1  -5    6.18    0.76
   5  -1  -5    5.42    0.78
  -5  -1   5    6.86    0.79
  -5  -1   5    8.53    0.85
  -5  -1   5    6.82    0.73
   5   1  -5    4.72    0.78
   5   1  -5    6.70    0.82
  -5   1   5    6.64    0.68
  -5   1   5    5.79    0.75
  -5   1   5    7.50    0.78
  -3  -1   5    3.00    0.49
   3  -1  -5    4.80    0.53
  -3  -1   5    5.53    0.59
  -3  -1   5    5.14    0.51
   3   1  -5    3.89    0.57
  -3   1   5    3.90    0.49
  -3   1   5    3.50    0.40
  -3   1   5    4.25    0.54
   3   1  -5    4.92    0.65
  -1  -1   5   36.87    2.51
  -1  -1   5   34.70    2.59
   1  -1  -5   38.05    2.54
   1  -1  -5   37.39    2.46
   1  -1  -5   35.59    2.43
   1  -1  -5   35.23    2.51
   1   1  -5   30.39    2.60
  -1   1   5   34.16    2.54
   1   1  -5   33.51    2.52
  -1   1   5   33.95    2.45
  -1  -1  -5    3.17    0.44
   1  -1   5    2.08    0.31
   1  -1   5    1.95    0.30
  -1  -1  -5    1.68    0.26
  -1   1  -5    2.06    0.36
   1   1   5    1.31    0.24
  -1   1  -5    2.45    0.34
  -1   1  -5    2.21    0.32
  -1   1  -5    1.79    0.29
  -3  -1  -5    0.79    0.29
   3  -1   5    1.80    0.26
  -3  -1  -5    1.29    0.31
  -3  -1  -5    1.82    0.39
   3  -1   5    1.87    0.27
  -3   1  -5    1.37    0.26
  -3   1  -5    1.38    0.31
  -3   1  -5    1.25    0.27
  -3   1  -5    1.36    0.28
  -5  -1  -5   15.06    1.33
  -5  -1  -5   15.55    1.13
  -5  -1  -5   14.68    1.13
   5  -1   5   16.35    1.22
   5  -1   5   16.28    1.18
  -5  -1  -5   15.26    1.34
  -5   1  -5   16.81    1.31
   5   1   5   16.50    1.19
  -5   1  -5   15.84    1.24
  -5   1  -5   14.54    1.35
   7  -1   5    0.41    0.22
   7  -1   5    0.47    0.25
  -7  -1  -5   -0.03    0.17
  -7  -1  -5    0.10    0.18
  -7  -1  -5    0.18    0.32
  -7   1  -5    0.27    0.34
  -7   1  -5    0.02    0.21
  -7   1  -5    0.40    0.29
   7   1   5    0.34    0.22
  -9  -1  -5    1.16    0.30
   9  -1   5    0.73    0.39
  -9  -1  -5    0.48    0.45
  -9   1  -5    1.43    0.44
  -9   1  -5    1.62    0.62
  -9   1  -5    0.71    0.37
 -11  -1  -5    0.13    0.27
 -11  -1  -5   -0.34    0.51
  11  -1   5   -0.37    0.49
 -11   1  -5   -0.50    0.38
 -11   1  -5    0.11    0.37
 -11   1  -5   -0.41    0.49
 -10  -2   5    0.10    0.35
  10  -2  -5    0.13    0.38
  10  -2  -5   -0.19    0.46
 -10  -2   5    0.09    0.38
 -10  -2   5    0.38    0.38
 -10   2   5   -0.26    0.37
 -10   2   5   -0.19    0.31
  10   2  -5   -0.01    0.51
 -10   2   5   -0.14    0.44
  10   2  -5    0.08    0.46
  -8  -2   5    1.25    0.42
  -8  -2   5    2.80    0.57
  -8  -2   5    2.53    0.55
   8  -2  -5    1.05    0.44
   8  -2  -5    1.53    0.51
  -8   2   5    2.29    0.47
  -8   2   5    1.63    0.49
   8   2  -5    1.75    0.56
   8   2  -5    2.59    0.69
  -8   2   5    2.01    0.53
   6  -2  -5   13.49    1.39
  -6  -2   5   16.41    1.36
  -6  -2   5   16.31    1.35
   6  -2  -5   13.31    1.29
  -6  -2   5   16.33    1.38
   6  -2  -5   12.68    1.41
  -6   2   5   16.92    1.39
   6   2  -5   18.40    1.70
   6   2  -5   14.27    1.47
  -6   2   5   14.82    1.25
  -6   2   5   15.90    1.32
   4  -2  -5    0.59    0.25
  -4  -2   5   -0.14    0.23
  -4  -2   5   -0.12    0.22
   4  -2  -5    0.42    0.21
  -4  -2   5   -0.39    0.19
   4  -2  -5    0.26    0.23
  -4   2   5    0.06    0.16
  -4   2   5   -0.20    0.17
  -4   2   5    0.25    0.22
   4   2  -5   -0.13    0.27
   4   2  -5    0.30    0.28
  -2  -2   5   17.51    1.35
   2  -2  -5   19.77    1.31
   2  -2  -5   16.82    1.28
  -2  -2   5   15.12    1.30
   2  -2  -5   16.66    1.24
  -2  -2   5   16.99    1.41
   2  -2  -5   19.77    1.35
  -2   2   5   16.67    1.21
   2   2  -5   17.00    1.39
   2   2  -5   15.51    1.45
  -2   2   5   16.05    1.27
  -2   2   5   16.15    1.32
   0  -2   5    1.90    0.32
   0  -2  -5    1.73    0.38
   0  -2  -5    1.78    0.22
   0  -2   5    1.38    0.30
   0   2  -5    1.77    0.34
   0   2  -5    1.62    0.33
   0   2   5    1.78    0.22
   0   2  -5    1.72    0.36
   0   2  -5    1.69    0.23
   2  -2   5    4.14    0.48
   2  -2   5    4.08    0.46
  -2  -2  -5    4.83    0.53
  -2  -2  -5    4.31    0.61
  -2  -2  -5    3.98    0.57
  -2   2  -5    5.22    0.50
  -2   2  -5    4.26    0.52
  -2   2  -5    4.83    0.56
  -4  -2  -5    0.25    0.23
   4  -2   5    0.28    0.13
   4  -2   5    0.58    0.15
  -4  -2  -5   -0.09    0.20
  -4   2  -5    1.01    0.27
   4   2   5   -0.08    0.10
  -4   2  -5    0.38    0.27
  -4   2  -5    1.08    0.25
   6  -2   5   14.98    1.20
   6  -2   5   14.95    1.16
   6  -2   5   13.10    1.14
  -6  -2  -5   14.26    1.34
   6   2   5   15.80    1.16
  -6   2  -5   16.41    1.40
  -6   2  -5   14.97    1.30
  -6   2  -5   13.38    1.23
   8  -2   5    2.78    0.49
  -8  -2  -5    2.88    0.64
   8  -2   5    2.64    0.50
  -8   2  -5    2.13    0.49
  -8   2  -5    3.88    0.75
  -8   2  -5    2.79    0.54
 -10  -2  -5    0.18    0.46
  10  -2   5    0.00    0.43
 -10   2  -5    0.21    0.39
 -10   2  -5   -0.07    0.40
 -10   2  -5    0.36    0.52
 -11  -3   5    0.25    0.48
  11  -3  -5   -0.02    0.45
 -11  -3   5   -0.45    0.40
  11  -3  -5   -0.38    0.52
 -11  -3   5    0.75    0.48
 -11   3   5    0.83    0.48
  11   3  -5    0.09    0.65
 -11   3   5    0.07    0.53
 -11   3   5    0.58    0.52
   9  -3  -5    0.34    0.43
   9  -3  -5   -0.12    0.36
  -9  -3   5    0.21    0.38
  -9  -3   5    0.09    0.38
  -9  -3   5   -0.35    0.30
  -9   3   5   -0.02    0.42
  -9   3   5    0.32    0.35
  -9   3   5    0.11    0.37
   9   3  -5   -0.07    0.47
   9   3  -5    0.58    0.57
   7  -3  -5    2.96    0.57
  -7  -3   5    2.45    0.55
  -7  -3   5    1.63    0.47
  -7  -3   5    1.07    0.45
   7  -3  -5    1.90    0.51
   7   3  -5    3.18    0.73
  -7   3   5    2.81    0.57
  -7   3   5    2.54    0.54
  -7   3   5    1.86    0.45
   7   3  -5    2.95    0.64
  -5  -3   5    8.96    0.99
   5  -3  -5    9.54    1.01
  -5  -3   5   11.35    1.07
   5  -3  -5    8.58    0.95
   5  -3  -5    7.40    0.88
  -5  -3   5    9.68    0.99
  -5   3   5    8.96    0.92
  -5   3   5    9.08    0.82
  -5   3   5    8.47    0.95
   5   3  -5    9.30    1.12
   5   3  -5    7.72    1.01
  -3  -3   5   10.91    1.01
   3  -3  -5   12.02    1.00
  -3  -3   5   11.00    1.15
  -3  -3   5   12.78    1.15
  -3  -3   5   11.80    1.07
   3  -3  -5   11.30    0.95
   3  -3  -5   12.99    1.22
  -3   3   5   10.34    0.95
  -3   3   5   11.47    0.92
   3   3  -5   10.79    1.22
  -3   3   5   10.61    1.01
   3   3  -5   13.40    1.21
   1  -3  -5   12.80    1.27
  -1  -3   5   14.47    1.19
  -1  -3   5   15.21    1.15
   1   3  -5   12.86    1.20
  -1   3   5   14.52    1.09
   1   3  -5   14.98    1.31
   1  -3   5    1.44    0.28
   1  -3   5    1.44    0.27
  -1  -3  -5    1.63    0.43
  -1  -3  -5    1.55    0.39
  -1  -3  -5    1.94    0.30
  -1   3  -5    1.36    0.36
  -1   3  -5    1.46    0.34
  -1   3  -5    1.69    0.29
  -3  -3  -5   11.59    1.12
   3  -3   5   12.32    0.97
   3  -3   5   11.75    1.00
  -3  -3  -5   11.38    1.23
  -3  -3  -5   12.43    1.14
  -3   3  -5   12.71    1.12
  -3   3  -5   14.32    1.00
  -3   3  -5   12.16    1.06
   5  -3   5    2.03    0.31
  -5  -3  -5    1.00    0.33
   5  -3   5    2.01    0.31
  -5  -3  -5    1.51    0.43
  -5   3  -5    1.56    0.39
  -5   3  -5    1.60    0.45
   5   3   5    1.57    0.21
  -5   3  -5    1.18    0.35
   7  -3   5    0.12    0.21
   7  -3   5   -0.31    0.19
  -7  -3  -5   -0.84    0.25
  -7   3  -5    0.06    0.31
  -7   3  -5    0.11    0.27
  -7   3  -5   -0.27    0.31
   9  -3   5    0.74    0.40
  -9  -3  -5    1.06    0.52
   9  -3   5    0.01    0.34
  -9   3  -5    0.29    0.39
  -9   3  -5    0.23    0.33
  -9   3  -5    0.13    0.49
 -11  -3  -5    0.53    0.57
  11  -3   5    0.42    0.54
 -11   3  -5    0.52    0.65
 -11   3  -5    0.64    0.54
 -11   3  -5    0.44    0.50
 -10  -4   5   -0.26    0.35
  10  -4  -5    0.08    0.44
  10  -4  -5   -0.40    0.32
 -10  -4   5   -0.27    0.45
 -10  -4   5   -0.07    0.41
 -10   4   5    0.17    0.55
 -10   4   5    0.51    0.47
  10   4  -5   -0.12    0.62
 -10   4   5    0.12    0.39
   8  -4  -5   -0.17    0.30
  -8  -4   5    0.40    0.38
  -8  -4   5    0.28    0.37
   8  -4  -5    0.14    0.31
  -8  -4   5    0.45    0.37
   8   4  -5   -0.54    0.44
  -8   4   5    0.13    0.40
  -8   4   5    0.24    0.32
  -8   4   5   -0.10    0.37
   8   4  -5    0.33    0.45
   6  -4  -5    4.89    0.76
   6  -4  -5    5.26    0.71
  -6  -4   5    5.88    0.76
  -6  -4   5    4.92    0.71
  -6  -4   5    5.42    0.81
   6  -4  -5    5.38    0.74
  -6   4   5    5.63    0.69
   6   4  -5    5.18    0.90
  -6   4   5    5.78    0.78
   6   4  -5    6.73    0.91
  -6   4   5    5.27    0.73
  -4  -4   5    3.14    0.52
   4  -4  -5    3.28    0.58
   4  -4  -5    3.50    0.49
  -4  -4   5    3.02    0.53
   4  -4  -5    2.51    0.41
  -4  -4   5    4.42    0.58
  -4  -4   5    3.71    0.61
  -4   4   5    2.70    0.43
   4   4  -5    2.15    0.57
   4   4  -5    2.74    0.60
  -4   4   5    2.86    0.46
  -4   4   5    3.17    0.49
   2  -4  -5    4.27    0.42
   2  -4  -5    4.89    0.74
   2  -4  -5    4.32    0.43
  -2  -4   5    4.39    0.56
  -2  -4   5    4.59    0.57
   2  -4  -5    5.87    0.72
   2   4  -5    4.50    0.71
   2   4  -5    4.87    0.70
  -2   4   5    4.66    0.52
   0  -4   5   44.78    3.10
   0  -4   5   46.24    3.21
   0  -4  -5   43.96    3.36
   0   4  -5   43.63    3.18
   0   4  -5   40.73    3.30
  -2  -4  -5   17.11    1.55
  -2  -4  -5   17.89    1.51
   2  -4   5   18.15    1.32
   2  -4   5   17.58    1.36
  -2  -4  -5   19.60    1.44
  -2   4  -5   15.38    1.48
  -2   4  -5   17.93    1.31
  -2   4  -5   16.05    1.41
  -4  -4  -5   -0.13    0.26
   4  -4   5    0.05    0.15
  -4  -4  -5    0.23    0.37
   4  -4   5    0.07    0.14
  -4  -4  -5    0.54    0.28
  -4   4  -5    0.01    0.23
  -4   4  -5    0.39    0.28
   6  -4   5    0.51    0.24
  -6  -4  -5    0.57    0.38
   6  -4   5    1.10    0.29
   6  -4   5    1.15    0.31
  -6   4  -5    1.31    0.39
  -6   4  -5    1.20    0.41
  -6   4  -5    1.27    0.50
   8  -4   5    0.60    0.34
   8  -4   5    0.93    0.36
  -8  -4  -5    0.73    0.52
  -8   4  -5    0.59    0.45
  -8   4  -5    1.09    0.44
  -8   4  -5    0.56    0.49
  10  -4   5    0.31    0.46
  10  -4   5    0.44    0.44
 -10  -4  -5    0.61    0.58
 -10   4  -5    0.12    0.58
 -10   4  -5   -0.78    0.37
 -10   4  -5    0.10    0.42
 -11  -5   5   -0.38    0.38
  11  -5  -5   -0.06    0.47
 -11  -5   5    0.38    0.59
 -11   5   5    0.33    0.60
 -11   5   5    0.56    0.53
   9  -5  -5   -0.09    0.34
  -9  -5   5   -0.72    0.41
  -9  -5   5    0.09    0.35
  -9  -5   5    0.34    0.38
   9  -5  -5   -0.08    0.38
  -9   5   5    0.39    0.42
  -9   5   5   -0.02    0.45
   9   5  -5    0.53    0.60
  -9   5   5    0.28    0.52
  -7  -5   5    0.05    0.32
  -7  -5   5   -0.22    0.30
   7  -5  -5    0.32    0.35
   7  -5  -5    0.51    0.41
  -7  -5   5    0.46    0.39
   7  -5  -5    0.04    0.29
  -7   5   5    0.28    0.37
  -7   5   5    1.10    0.45
   7   5  -5    0.24    0.46
  -7   5   5    0.51    0.33
   5  -5  -5    0.89    0.34
  -5  -5   5    0.59    0.32
  -5  -5   5    0.83    0.42
  -5  -5   5    1.26    0.38
   5  -5  -5    1.19    0.43
   5  -5  -5    0.41    0.28
  -5   5   5    0.93    0.35
   5   5  -5    1.10    0.48
  -5   5   5    0.51    0.33
   5   5  -5    0.54    0.47
  -5   5   5    1.11    0.37
   3  -5  -5    3.77    0.42
   3  -5  -5    3.42    0.41
  -3  -5   5    3.52    0.51
  -3  -5   5    2.85    0.48
  -3  -5   5    2.99    0.62
   3  -5  -5    5.23    0.73
   3  -5  -5    3.26    0.41
   3  -5  -5    4.76    0.69
   3  -5  -5    3.68    0.43
  -3  -5   5    4.08    0.67
  -3   5   5    4.16    0.54
   3   5  -5    3.59    0.68
   3   5  -5    3.02    0.61
  -3   5   5    4.97    0.53
  -1  -5   5    0.25    0.20
   1  -5  -5    0.45    0.30
  -1  -5   5    0.53    0.22
  -1   5   5    0.34    0.19
   1   5  -5    0.41    0.34
   1   5  -5    0.94    0.36
  -1  -5  -5    0.18    0.34
  -1  -5  -5   -0.04    0.25
   1  -5   5    0.14    0.16
  -1  -5  -5   -0.09    0.20
   1  -5   5    0.21    0.15
  -1   5  -5   -0.07    0.27
  -1   5  -5    0.01    0.26
  -3  -5  -5    0.48    0.29
  -3  -5  -5    0.49    0.31
   3  -5   5    0.32    0.16
  -3  -5  -5    0.41    0.41
   3  -5   5    0.68    0.20
  -3   5  -5   -0.11    0.26
  -3   5  -5   -0.18    0.26
  -5  -5  -5    0.20    0.28
   5  -5   5    0.21    0.17
   5  -5   5   -0.27    0.15
  -5  -5  -5    1.18    0.44
   5  -5   5    0.12    0.18
  -5   5  -5    0.90    0.35
  -5   5  -5    0.39    0.34
   7  -5   5    1.19    0.34
  -7  -5  -5    0.66    0.50
   7  -5   5    0.28    0.32
  -7   5  -5    0.51    0.40
  -7   5  -5    0.90    0.42
  -7   5  -5    0.67    0.50
   9  -5   5   -0.28    0.32
  -9  -5  -5    0.22    0.50
   9  -5   5   -0.58    0.33
  -9   5  -5   -0.23    0.39
  -9   5  -5   -0.21    0.42
  -9   5  -5    0.07    0.47
  11  -5   5   -0.10    0.50
 -11  -5  -5    0.04    0.56
 -11   5  -5    0.27    0.67
 -11   5  -5    0.19    0.48
 -10  -6   5    0.68    0.38
 -10  -6   5   -0.52    0.32
  10  -6  -5   -0.13    0.44
  10  -6  -5    0.49    0.46
 -10  -6   5   -0.64    0.47
 -10   6   5    0.56    0.58
 -10   6   5    0.34    0.64
 -10   6   5    0.01    0.49
  -8  -6   5    0.19    0.33
   8  -6  -5    0.71    0.39
   8  -6  -5    0.00    0.38
  -8  -6   5    0.33    0.47
  -8  -6   5   -0.36    0.28
  -8   6   5   -0.42    0.32
   8   6  -5    0.63    0.62
  -8   6   5    0.47    0.50
  -6  -6   5    4.78    0.85
  -6  -6   5    5.25    0.67
   6  -6  -5    4.64    0.65
  -6  -6   5    4.71    0.61
   6  -6  -5    4.47    0.67
   6  -6  -5    4.43    0.83
   6   6  -5    4.98    0.97
  -6   6   5    3.27    0.68
  -6   6   5    3.86    0.66
  -4  -6   5    0.85    0.43
  -4  -6   5    0.80    0.42
   4  -6  -5    1.94    0.50
  -4  -6   5    1.46    0.38
   4  -6  -5    1.61    0.31
   4  -6  -5    1.29    0.30
  -4  -6   5    1.75    0.36
   4  -6  -5    1.54    0.48
  -4   6   5    2.47    0.47
   4   6  -5    1.44    0.54
   4   6  -5    1.72    0.56
   2  -6  -5    3.80    0.63
  -2  -6   5    2.87    0.46
  -2  -6   5    5.11    0.81
  -2  -6   5    4.15    0.52
   2   6  -5    3.40    0.71
  -2   6   5    4.35    0.53
   2   6  -5    4.21    0.71
   0  -6   5   48.44    3.57
   0  -6   5   51.19    3.47
   0  -6  -5   45.89    3.76
   0   6  -5   53.89    3.64
   0   6  -5   49.60    3.77
  -2  -6  -5    3.95    0.64
  -2  -6  -5    4.33    0.74
  -2  -6  -5    4.70    0.65
   2  -6   5    4.73    0.51
   2  -6   5    4.43    0.51
  -2   6  -5    5.29    0.75
  -2   6  -5    4.33    0.66
   4  -6   5    0.76    0.25
   4  -6   5    1.26    0.28
  -4  -6  -5    0.26    0.43
  -4  -6  -5    0.58    0.39
  -4  -6  -5    0.53    0.32
  -4   6  -5    0.31    0.35
  -4   6  -5    1.28    0.47
  -6  -6  -5    4.00    0.86
   6  -6   5    4.63    0.67
   6  -6   5    4.47    0.62
  -6   6  -5    6.85    0.88
  -6   6  -5    4.64    0.79
   8  -6   5   -0.18    0.33
  -8  -6  -5    0.02    0.50
   8  -6   5    0.56    0.36
  -8   6  -5   -0.12    0.38
  -8   6  -5    0.42    0.48
  -8   6  -5    0.28    0.51
  -8   6  -5    0.69    0.53
  10  -6   5    0.17    0.46
  10  -6   5    0.08    0.49
 -10  -6  -5   -0.08    0.61
 -10   6  -5    1.17    0.73
 -10   6  -5    0.19    0.50
 -10   6  -5    0.81    0.63
  -9  -7   5    0.51    0.33
  -9  -7   5    0.72    0.59
   9  -7  -5    1.04    0.51
  -9  -7   5    1.10    0.34
   9  -7  -5    0.53    0.46
  -9   7   5    0.61    0.63
  -9   7   5    1.30    0.57
   7  -7  -5    0.39    0.37
  -7  -7   5    0.01    0.28
   7  -7  -5    0.70    0.37
   7  -7  -5   -0.32    0.43
  -7  -7   5   -0.28    0.24
  -7  -7   5   -0.25    0.43
   7   7  -5    0.73    0.64
  -7   7   5   -0.33    0.44
  -7   7   5    0.12    0.38
   5  -7  -5    2.13    0.62
   5  -7  -5    2.25    0.44
   5  -7  -5    2.02    0.41
  -5  -7   5    2.45    0.44
  -5  -7   5    1.43    0.56
   5  -7  -5    2.17    0.60
  -5  -7   5    2.59    0.43
  -5   7   5    2.21    0.56
  -5   7   5    4.00    0.66
   5   7  -5    2.26    0.68
   3  -7  -5   -0.05    0.36
  -3  -7   5    0.67    0.47
  -3  -7   5    0.99    0.28
  -3  -7   5    0.21    0.22
   3  -7  -5    0.82    0.47
   3   7  -5    1.66    0.54
   3   7  -5    1.36    0.50
   1  -7  -5    3.25    0.83
  -1  -7   5    4.96    0.56
  -1  -7   5    5.63    0.57
  -1  -7   5    4.09    0.90
   1  -7  -5    5.63    0.75
   1   7  -5    5.18    0.78
   1   7  -5    4.83    0.83
  -1  -7  -5    7.46    0.90
   1  -7   5    7.39    0.70
   1  -7   5    7.94    0.77
  -1  -7  -5    8.50    1.08
  -1   7  -5    9.03    1.09
  -1   7  -5    9.71    1.08
   3  -7   5    3.09    0.44
   3  -7   5    3.05    0.44
  -3  -7  -5    2.81    0.53
  -3  -7  -5    4.20    0.76
  -3  -7  -5    2.79    0.66
  -3   7  -5    4.09    0.69
  -3   7  -5    4.25    0.73
  -5  -7  -5    0.95    0.53
   5  -7   5    1.44    0.35
   5  -7   5    1.37    0.35
   5  -7   5    1.17    0.37
  -5  -7  -5    1.12    0.42
  -5   7  -5    0.95    0.49
  -5   7  -5    1.40    0.52
   7  -7   5   -0.05    0.28
  -7  -7  -5    0.22    0.54
   7  -7   5    0.33    0.36
  -7   7  -5    0.37    0.54
  -7   7  -5    0.24    0.42
  -7   7  -5    0.11    0.45
  -9  -7  -5    1.07    0.70
   9  -7   5    0.71    0.49
   9  -7   5    0.41    0.44
  -9   7  -5    0.46    0.56
  -9   7  -5    0.29    0.52
  -9   7  -5    0.37    0.64
  -9   7  -5    0.18    0.55
   8  -8  -5    2.27    0.59
  -8  -8   5    2.76    0.80
  -8  -8   5    1.82    0.39
   8  -8  -5    1.14    0.49
  -8   8   5    2.55    0.82
  -8   8   5    1.71    0.64
   6  -8  -5    4.89    0.81
   6  -8  -5    2.95    0.53
  -6  -8   5    3.76    0.45
  -6  -8   5    4.40    0.87
   6  -8  -5    3.53    0.83
  -6  -8   5    3.73    0.51
   6  -8  -5    3.08    0.55
   6   8  -5    3.79    0.93
  -6   8   5    5.19    0.85
  -6   8   5    3.81    0.74
  -4  -8   5    5.31    0.98
   4  -8  -5    5.56    0.86
  -4  -8   5    6.59    0.68
  -4  -8   5    7.48    0.63
   4  -8  -5    3.92    0.95
   4   8  -5    6.11    1.03
  -2  -8   5    4.39    0.48
  -2  -8   5    3.68    0.48
   2  -8  -5    3.26    0.81
  -2  -8   5    2.64    0.79
   2  -8  -5    4.75    0.71
   2   8  -5    4.66    0.84
   0  -8  -5    0.32    0.31
   0  -8   5    0.03    0.16
   0  -8   5    0.37    0.19
   0  -8   5    0.04    0.52
   0   8  -5    0.02    0.35
   0   8  -5    0.47    0.41
   2  -8   5    5.79    0.65
  -2  -8  -5    6.99    1.01
  -2  -8  -5    6.18    0.81
   2  -8   5    6.25    0.67
  -2   8  -5    6.37    0.96
  -2   8  -5    6.82    0.92
   4  -8   5    5.47    0.65
   4  -8   5    4.39    0.63
  -4  -8  -5    5.32    0.97
  -4  -8  -5    5.99    0.94
  -4  -8  -5    3.07    0.64
   4  -8   5    5.37    0.66
  -4   8  -5    5.42    0.93
  -4   8  -5    6.94    0.92
   6  -8   5    2.72    0.56
   6  -8   5    2.17    0.48
  -6  -8  -5    1.93    0.72
  -6   8  -5    2.36    0.67
  -6   8  -5    3.25    0.75
  -8  -8  -5    2.70    0.86
   8  -8   5    3.02    0.73
   8  -8   5    3.09    0.66
  -8   8  -5    1.43    0.62
  -8   8  -5    4.04    1.03
  -8   8  -5    2.31    0.76
  -7  -9   5    0.30    0.21
   7  -9  -5    1.12    0.41
  -7  -9   5   -0.28    0.52
   7  -9  -5    0.48    0.36
   7  -9  -5    0.52    0.62
  -7   9   5    1.04    0.57
   5  -9  -5    1.15    0.27
  -5  -9   5    0.95    0.27
  -5  -9   5    1.48    0.25
   5  -9  -5    1.25    0.62
  -3  -9   5    2.83    0.39
  -3  -9   5    1.84    0.70
   3  -9  -5    1.78    0.53
   3  -9  -5    2.84    0.78
  -3  -9   5    2.93    0.36
   3   9  -5    3.09    0.78
   1  -9  -5    0.17    0.34
  -1  -9   5    0.31    0.57
  -1  -9   5   -0.10    0.17
  -1  -9   5    0.36    0.20
   1   9  -5    0.68    0.50
  -1  -9  -5   -0.24    0.46
   1  -9   5    0.03    0.18
  -1  -9  -5   -0.01    0.29
   1  -9   5    0.58    0.59
   1  -9   5    0.25    0.22
  -1   9  -5   -0.55    0.39
   3  -9   5   -0.03    0.24
   3  -9   5   -0.17    0.24
   3  -9   5   -0.18    0.20
  -3  -9  -5   -0.29    0.37
  -3  -9  -5    0.96    0.62
  -3  -9  -5    0.20    0.31
  -3   9  -5    1.13    0.51
  -3   9  -5    0.36    0.45
   5  -9   5    0.56    0.37
  -5  -9  -5    0.24    0.54
   5  -9   5    0.03    0.30
  -5   9  -5    0.33    0.49
  -5   9  -5    0.86    0.53
   7  -9   5   -0.32    0.42
   7  -9   5    0.07    0.41
  -7  -9  -5    0.30    0.66
  -7   9  -5    0.53    0.55
  -7   9  -5    0.12    0.59
   6 -10  -5    0.90    0.70
  -6 -10   5    0.72    0.19
   4 -10  -5    3.22    0.94
  -4 -10   5    4.92    0.51
  -4 -10   5    5.23    1.09
  -2 -10   5    5.39    0.54
   2 -10  -5    2.13    0.89
  -2 -10   5    5.37    0.55
  -2 -10   5    4.74    1.10
   2  10  -5    5.72    1.02
   0 -10   5    5.35    0.58
   0 -10  -5    6.43    0.75
   0 -10   5    4.76    0.57
   0 -10   5    3.75    0.52
   0 -10   5    3.49    1.04
   0 -10  -5    4.35    0.92
   0  10  -5    4.80    0.93
   2 -10   5    0.79    0.69
  -2 -10  -5    1.10    0.62
   2 -10   5    0.89    0.35
   2 -10   5    1.50    0.39
  -2 -10  -5    1.83    0.46
  -2  10  -5    1.61    0.61
  -4 -10  -5    5.93    1.04
   4 -10   5    3.77    0.65
   4 -10   5    3.60    0.64
  -4 -10  -5    6.86    1.10
  -4  10  -5    4.99    0.97
  -6 -10  -5    1.05    0.67
   6 -10   5    0.60    0.46
   6 -10   5    1.37    0.53
  -6  10  -5    2.48    0.79
  -6  10  -5    2.58    0.79
   5 -11  -5    2.41    0.92
  -3 -11   5    0.13    0.20
  -3 -11   5    0.51    0.66
   3 -11  -5   -0.21    0.60
  -3 -11   5    0.39    0.21
   1 -11  -5   -0.26    0.59
  -1 -11   5   -0.09    0.20
  -1 -11   5    0.16    0.23
  -1 -11   5   -0.11    0.24
  -1 -11   5   -0.42    0.58
   1 -11   5    0.74    0.32
  -1 -11  -5    0.35    0.62
   1 -11   5    0.30    0.29
   1 -11   5    0.10    0.67
  -1  11  -5    1.56    0.67
   3 -11   5   -0.12    0.29
   3 -11   5    0.18    0.35
   3 -11   5   -0.18    0.70
  -3 -11  -5    0.21    0.67
  -3  11  -5   -0.14    0.54
   5 -11   5    1.22    0.53
  -5 -11  -5    0.45    0.65
   5 -11   5    0.74    0.47
  -5  11  -5    0.80    0.69
  -2 -12   5    5.38    1.28
   0 -12  -5    0.23    0.66
   0 -12   5   -0.03    0.27
   0 -12   5    0.88    0.79
   2 -12   5    2.55    1.12
  -2 -12  -5    7.36    1.22
   2 -12   5    3.95    0.65
   2 -12   5    4.77    0.69
  10   0  -6   22.52    2.21
  10   0  -6   23.65    2.39
 -10   0   6   21.23    2.02
 -10   0   6   23.49    2.01
 -10   0   6   22.74    2.03
   8   0  -6    2.50    0.60
   8   0  -6    1.79    0.62
  -8   0   6    2.79    0.55
  -8   0   6    2.38    0.58
  -8   0   6    2.19    0.57
   6   0  -6   38.59    3.17
  -6   0   6   46.86    3.17
  -6   0   6   44.65    3.29
  -6   0   6   43.54    3.18
   6   0  -6   40.70    3.33
   4   0  -6   20.73    1.94
  -4   0   6   23.80    1.86
  -4   0   6   25.52    1.93
  -4   0   6   26.10    1.81
   4   0  -6   23.67    1.88
  -2   0   6   60.42    4.78
  -2   0   6   68.44    4.64
  -2   0   6   70.16    4.59
   0   0  -6   11.32    1.03
   0   0  -6    9.41    0.73
   0   0  -6   10.31    0.84
   0   0  -6    9.30    0.80
   0   0   6    9.03    0.85
   0   0   6    9.82    0.82
  -2   0  -6  771.88   53.53
  -2   0  -6  771.03   54.17
  -2   0  -6  794.45   53.54
  -2   0  -6  743.97   51.69
  -2   0  -6  801.03   55.22
   2   0   6  801.96   53.58
  -2   0  -6  744.03   51.70
  -2   0  -6  781.37   52.75
  -4   0  -6    5.37    0.67
   4   0   6    6.05    0.58
  -4   0  -6    5.86    0.56
  -4   0  -6    5.35    0.54
  -4   0  -6    6.26    0.56
  -4   0  -6    5.20    0.68
  -4   0  -6    5.80    0.55
   4   0   6    6.34    0.57
  -6   0  -6   46.50    3.30
  -6   0  -6   46.41    3.29
   6   0   6   50.67    3.40
  -6   0  -6   45.27    3.53
  -6   0  -6   46.49    3.39
  -8   0  -6    1.40    0.34
  -8   0  -6    0.90    0.49
  -8   0  -6    1.76    0.34
   8   0   6    1.03    0.37
 -10   0  -6    7.83    0.75
 -10   0  -6    6.31    0.77
 -10   0  -6    7.46    1.15
  11  -1  -6    0.48    0.51
 -11  -1   6    0.46    0.48
 -11  -1   6    0.68    0.54
  11  -1  -6   -0.17    0.55
 -11  -1   6   -0.12    0.42
 -11   1   6    0.41    0.48
 -11   1   6   -0.16    0.43
 -11   1   6    0.18    0.50
  11   1  -6    0.17    0.56
  11   1  -6   -0.38    0.57
  -9  -1   6    3.83    0.70
  -9  -1   6    4.08    0.73
   9  -1  -6    3.31    0.71
   9  -1  -6    3.60    0.80
  -9  -1   6    4.98    0.75
   9   1  -6    4.82    0.90
  -9   1   6    4.37    0.78
  -9   1   6    3.78    0.74
  -9   1   6    3.44    0.65
   9   1  -6    3.90    0.79
   7  -1  -6   -0.07    0.33
  -7  -1   6    0.22    0.31
  -7  -1   6    0.33    0.31
  -7  -1   6   -0.12    0.28
   7  -1  -6    0.36    0.33
  -7   1   6   -0.29    0.27
   7   1  -6   -0.11    0.30
   7   1  -6    0.19    0.37
  -7   1   6   -0.01    0.27
  -7   1   6   -0.27    0.21
   5  -1  -6    0.38    0.30
   5  -1  -6    0.12    0.24
  -5  -1   6    0.03    0.24
  -5  -1   6   -0.10    0.21
  -5  -1   6    0.10    0.25
   5   1  -6    0.74    0.36
  -5   1   6    0.20    0.19
  -5   1   6    0.06    0.26
   5   1  -6   -0.04    0.25
  -5   1   6    0.19    0.24
  -3  -1   6    0.52    0.21
  -3  -1   6    0.48    0.26
  -3  -1   6    0.33    0.25
  -3   1   6    0.23    0.14
   3   1  -6    0.20    0.28
   3   1  -6    0.40    0.32
  -3   1   6    0.40    0.22
  -3   1   6    0.86    0.26
   1  -1  -6    2.91    0.41
   1  -1  -6    3.98    0.42
   1  -1  -6    3.86    0.44
   1  -1  -6    4.04    0.42
   1  -1  -6    3.60    0.60
  -1  -1   6    4.07    0.50
  -1  -1   6    3.52    0.50
  -1   1   6    3.95    0.46
  -1   1   6    3.40    0.45
  -1  -1  -6  116.67    9.11
   1  -1   6  135.71    9.00
  -1  -1  -6  129.45    8.80
  -1  -1  -6  117.83    9.31
   1  -1   6  127.62    8.69
  -1   1  -6  133.25    9.06
   1   1   6  125.05    8.94
  -1   1  -6  129.21    9.00
  -1   1  -6  127.15    8.68
  -1   1  -6  140.38    9.30
   3  -1   6   36.22    2.69
  -3  -1  -6   38.41    2.72
   3  -1   6   38.67    2.61
  -3  -1  -6   36.19    2.85
  -3  -1  -6   36.33    2.81
  -3   1  -6   42.99    2.76
  -3   1  -6   37.24    2.62
  -3   1  -6   35.47    2.70
   3   1   6   36.27    2.66
  -3   1  -6   34.96    2.79
  -5  -1  -6    1.54    0.36
   5  -1   6    1.03    0.23
   5  -1   6    1.02    0.22
  -5  -1  -6    1.28    0.32
   5   1   6    1.29    0.22
  -5   1  -6    0.87    0.34
  -5   1  -6    1.06    0.28
  -5   1  -6    1.07    0.29
  -5   1  -6    0.64    0.25
  -7  -1  -6   -0.10    0.15
  -7  -1  -6    0.05    0.32
   7  -1   6   -0.09    0.17
  -7  -1  -6   -0.12    0.15
  -7   1  -6    0.16    0.24
   7   1   6   -0.16    0.18
  -7   1  -6    0.49    0.29
  -7   1  -6   -0.11    0.31
  -9  -1  -6    0.31    0.19
   9  -1   6    0.46    0.34
  -9  -1  -6    0.07    0.42
  -9   1  -6   -0.11    0.41
  -9   1  -6    0.29    0.32
  -9   1  -6    0.51    0.35
 -11  -1  -6    0.05    0.52
 -11   1  -6    0.17    0.37
 -11   1  -6    0.17    0.40
 -11   1  -6   -0.38    0.52
 -10  -2   6    0.03    0.42
  10  -2  -6    0.05    0.42
 -10  -2   6   -0.15    0.38
  10  -2  -6    0.06    0.48
 -10  -2   6    0.05    0.42
 -10   2   6    0.20    0.36
  10   2  -6    0.59    0.55
 -10   2   6    0.02    0.47
  10   2  -6    0.18    0.54
 -10   2   6    0.35    0.43
  -8  -2   6   24.58    2.18
   8  -2  -6   22.94    2.22
  -8  -2   6   26.76    2.18
   8  -2  -6   25.26    2.14
  -8  -2   6   29.45    2.20
  -8   2   6   30.39    2.20
   8   2  -6   26.32    2.38
   8   2  -6   25.39    2.21
  -8   2   6   27.91    2.26
  -8   2   6   24.95    2.08
  -6  -2   6    2.59    0.54
   6  -2  -6    3.97    0.63
  -6  -2   6    4.59    0.63
   6  -2  -6    3.16    0.53
  -6  -2   6    3.75    0.60
   6   2  -6    2.99    0.59
  -6   2   6    2.81    0.54
   6   2  -6    1.80    0.56
  -6   2   6    2.75    0.54
  -6   2   6    3.19    0.48
  -4  -2   6  136.40    9.83
  -4  -2   6  133.24    9.50
   4  -2  -6  150.75    9.46
   4  -2  -6  151.51    9.81
  -4  -2   6  133.99    9.62
  -4   2   6  135.30    9.45
   4   2  -6  130.20    9.91
  -4   2   6  140.69    9.54
  -4   2   6  140.13    9.81
   4   2  -6  134.43    9.55
  -2  -2   6   12.41    1.15
   2  -2  -6   14.26    1.03
  -2  -2   6   11.88    1.08
   2  -2  -6   11.70    0.99
   2  -2  -6   11.80    0.96
   2  -2  -6   15.07    1.06
   2   2  -6   12.55    1.28
  -2   2   6   13.15    1.07
   2   2  -6   12.84    1.16
  -2   2   6   11.14    1.01
   0  -2   6  324.93   23.25
   0  -2  -6  300.20   22.77
   0  -2   6  309.58   22.45
   0   2  -6  355.24   23.39
   0   2  -6  389.55   23.95
   0   2   6  310.38   23.16
   0   2  -6  361.48   22.50
   2  -2   6    0.74    0.23
  -2  -2  -6    0.65    0.36
  -2  -2  -6    1.20    0.28
  -2  -2  -6    0.70    0.32
   2  -2   6    1.46    0.29
  -2   2  -6    1.24    0.31
  -2   2  -6    1.12    0.30
  -2   2  -6    1.28    0.30
   4  -2   6  115.04    8.03
   4  -2   6  114.79    7.77
  -4  -2  -6  108.43    8.36
  -4  -2  -6  106.01    8.01
  -4   2  -6  116.66    8.11
  -4   2  -6  118.45    7.83
   4   2   6  109.02    7.98
  -4   2  -6  116.91    8.07
  -4   2  -6  126.26    8.27
  -6  -2  -6    3.76    0.60
   6  -2   6    3.49    0.48
  -6  -2  -6    4.31    0.65
   6  -2   6    3.70    0.47
  -6   2  -6    3.93    0.56
  -6   2  -6    4.74    0.63
  -6   2  -6    4.52    0.72
   8  -2   6   30.37    2.47
  -8  -2  -6   32.29    2.65
  -8   2  -6   33.22    2.53
  -8   2  -6   30.15    2.42
  -8   2  -6   34.07    2.71
  10  -2   6    0.19    0.44
 -10  -2  -6    0.06    0.48
 -10   2  -6    0.22    0.52
 -10   2  -6   -0.47    0.33
 -10   2  -6    0.01    0.41
 -11  -3   6    0.75    0.55
 -11  -3   6   -0.33    0.46
  11  -3  -6   -0.12    0.53
 -11  -3   6    0.08    0.44
  11  -3  -6   -0.51    0.44
 -11   3   6   -0.40    0.41
 -11   3   6   -0.05    0.47
  11   3  -6    0.34    0.70
 -11   3   6   -0.19    0.50
   9  -3  -6   -0.41    0.32
  -9  -3   6    0.44    0.40
  -9  -3   6   -0.18    0.38
  -9  -3   6   -0.20    0.39
   9  -3  -6   -0.49    0.37
  -9   3   6   -0.21    0.42
  -9   3   6    0.16    0.34
   9   3  -6   -0.18    0.46
   9   3  -6    0.13    0.48
  -9   3   6   -0.01    0.39
   7  -3  -6    0.93    0.42
  -7  -3   6    0.25    0.34
  -7  -3   6    0.68    0.40
  -7  -3   6    0.74    0.41
   7  -3  -6    0.55    0.35
   7   3  -6    1.94    0.63
  -7   3   6    0.98    0.44
  -7   3   6    0.81    0.39
   7   3  -6    0.45    0.43
  -7   3   6    0.64    0.32
  -5  -3   6    0.01    0.26
  -5  -3   6   -0.08    0.26
  -5  -3   6   -0.09    0.26
   5   3  -6   -0.31    0.31
  -5   3   6    0.88    0.33
   5   3  -6   -0.36    0.36
  -5   3   6    0.30    0.28
  -5   3   6    0.52    0.22
  -3  -3   6    3.46    0.57
   3  -3  -6    3.99    0.50
  -3  -3   6    5.19    0.66
   3  -3  -6    4.51    0.48
  -3  -3   6    3.93    0.57
   3  -3  -6    5.20    0.57
  -3  -3   6    3.22    0.57
  -3   3   6    4.37    0.53
  -3   3   6    4.42    0.55
   3   3  -6    3.77    0.69
   3   3  -6    4.37    0.69
  -3   3   6    3.84    0.43
  -1  -3   6   26.02    1.83
   1  -3  -6   20.66    1.95
  -1  -3   6   22.51    1.87
   1   3  -6   25.34    1.89
   1   3  -6   25.47    1.99
  -1   3   6   24.02    1.77
   1  -3   6    6.46    0.68
  -1  -3  -6    6.18    0.64
  -1  -3  -6    7.49    0.86
  -1  -3  -6    6.37    0.86
   1  -3   6    5.20    0.65
  -1   3  -6   11.28    0.86
  -3  -3  -6    5.19    0.65
   3  -3   6    5.05    0.53
  -3  -3  -6    4.54    0.65
   3  -3   6    4.73    0.54
  -3  -3  -6    4.37    0.71
  -3   3  -6    5.04    0.66
  -3   3  -6    6.12    0.55
  -3   3  -6    4.72    0.63
  -5  -3  -6    0.44    0.32
  -5  -3  -6    0.91    0.33
   5  -3   6    0.81    0.22
   5  -3   6    0.40    0.18
  -5   3  -6    0.86    0.32
  -5   3  -6    1.28    0.32
  -5   3  -6    0.68    0.40
   7  -3   6    0.10    0.22
  -7  -3  -6    0.18    0.33
   7  -3   6   -0.03    0.21
   7  -3   6    0.20    0.22
  -7   3  -6   -0.25    0.30
  -7   3  -6    0.07    0.28
  -7   3  -6    0.26    0.38
   9  -3   6   -0.13    0.29
  -9  -3  -6    0.20    0.48
  -9   3  -6   -0.14    0.45
  -9   3  -6    0.05    0.40
  -9   3  -6   -0.28    0.34
  11  -3   6   -0.34    0.50
 -11  -3  -6   -0.02    0.55
 -11   3  -6    1.09    0.56
 -11   3  -6    0.20    0.63
 -11   3  -6    0.37    0.54
  10  -4  -6    5.04    0.99
 -10  -4   6    8.63    1.09
 -10  -4   6    7.45    1.01
  10  -4  -6    6.96    1.04
 -10  -4   6    8.99    1.24
 -10   4   6    8.21    1.05
  10   4  -6    8.39    1.40
 -10   4   6    7.07    1.17
 -10   4   6    8.69    1.22
  -8  -4   6   -0.17    0.36
  -8  -4   6    0.44    0.41
   8  -4  -6   -0.07    0.32
  -8  -4   6   -0.03    0.36
   8  -4  -6    0.21    0.38
  -8   4   6    0.00    0.33
   8   4  -6    0.59    0.53
  -8   4   6    0.11    0.44
   8   4  -6   -0.24    0.50
  -8   4   6    0.50    0.44
   6  -4  -6   48.24    4.07
   6  -4  -6   51.86    4.74
  -6  -4   6   58.52    4.13
  -6  -4   6   59.67    4.16
   6  -4  -6   51.40    3.92
  -6  -4   6   58.00    4.04
  -6   4   6   53.91    4.14
   6   4  -6   55.16    4.33
  -6   4   6   54.40    3.98
   6   4  -6   58.14    4.16
  -6   4   6   63.19    4.03
   4  -4  -6   29.02    1.97
  -4  -4   6   27.33    2.15
  -4  -4   6   22.78    2.37
  -4  -4   6   27.77    2.08
  -4  -4   6   25.91    2.13
   4  -4  -6   31.55    2.47
   4  -4  -6   29.99    2.05
  -4   4   6   24.62    2.08
   4   4  -6   25.94    2.28
  -4   4   6   25.89    2.00
  -4   4   6   24.50    1.96
   4   4  -6   22.29    2.12
  -2  -4   6  137.86    9.53
   2  -4  -6  140.61   10.19
  -2  -4   6  138.16    9.85
  -2   4   6  143.98    9.77
  -2   4   6  144.41    9.78
   2   4  -6  134.55    9.60
   2   4  -6  135.14    9.97
   0  -4  -6   -0.02    0.28
   0  -4   6   -0.06    0.17
   0  -4   6   -0.16    0.18
   0   4  -6   -0.48    0.25
   0   4  -6   -0.08    0.25
   0   4  -6   -0.04    0.25
  -2  -4  -6  163.58   11.26
   2  -4   6  165.25   11.40
  -2  -4  -6  155.66   11.65
   2  -4   6  161.24   11.02
  -2  -4  -6  155.38   11.82
  -2   4  -6  167.62   11.64
  -2   4  -6  161.94   11.52
  -2   4  -6  172.95   11.12
  -4  -4  -6    1.28    0.44
   4  -4   6    1.14    0.26
  -4  -4  -6    1.26    0.41
   4  -4   6    1.36    0.27
  -4  -4  -6    1.59    0.42
  -4   4  -6    0.65    0.34
  -4   4  -6    0.88    0.35
   6  -4   6   42.64    3.00
  -6  -4  -6   37.78    3.27
  -6  -4  -6   37.36    3.25
   6  -4   6   43.19    3.10
   6  -4   6   41.76    2.99
  -6   4  -6   45.89    3.14
  -6   4  -6   42.82    3.26
  -6   4  -6   43.75    3.34
   8  -4   6    2.36    0.49
  -8  -4  -6    3.34    0.75
   8  -4   6    2.63    0.53
  -8   4  -6    2.93    0.62
  -8   4  -6    2.35    0.62
  -8   4  -6    1.53    0.62
 -10  -4  -6   10.43    1.51
  10  -4   6   10.21    1.38
 -10   4  -6   19.22    2.03
 -10   4  -6   13.98    1.50
 -10   4  -6   12.85    1.47
  -9  -5   6    0.92    0.46
   9  -5  -6    0.48    0.46
  -9  -5   6    0.26    0.47
   9  -5  -6    0.10    0.42
  -9  -5   6    0.61    0.42
   9   5  -6    1.45    0.74
  -9   5   6   -0.10    0.50
  -9   5   6    0.20    0.42
  -9   5   6    1.02    0.58
  -7  -5   6    4.87    0.72
  -7  -5   6    4.11    0.70
   7  -5  -6    3.04    0.60
  -7  -5   6    5.45    0.89
   7  -5  -6    2.58    0.61
  -7   5   6    5.63    0.71
   7   5  -6    6.40    1.07
  -7   5   6    4.24    0.72
   7   5  -6    6.77    1.01
  -7   5   6    3.12    0.72
  -5  -5   6    0.68    0.43
   5  -5  -6    0.63    0.39
  -5  -5   6    0.66    0.35
   5  -5  -6    0.76    0.28
  -5  -5   6    0.34    0.34
   5  -5  -6    0.75    0.33
  -5   5   6    0.32    0.27
   5   5  -6    1.06    0.51
  -5   5   6   -0.14    0.29
   5   5  -6    0.01    0.39
  -3  -5   6   16.16    1.27
  -3  -5   6   14.37    1.39
   3  -5  -6   13.06    1.05
  -3  -5   6   16.20    1.24
   3  -5  -6   11.41    1.04
  -3  -5   6   12.06    1.43
   3  -5  -6   13.74    1.48
   3  -5  -6   15.54    1.49
  -3   5   6   14.65    1.22
  -3   5   6   13.95    1.18
   3   5  -6   15.53    1.51
   3   5  -6   17.59    1.62
   1  -5  -6    6.97    0.83
  -1  -5   6    5.16    0.63
  -1  -5   6    5.73    0.66
   1   5  -6    6.39    0.89
   1   5  -6    5.74    0.80
  -1   5   6    5.23    0.56
   1  -5   6   13.47    1.07
  -1  -5  -6   12.47    1.37
  -1  -5  -6   12.93    1.25
   1  -5   6   13.45    1.10
  -1  -5  -6   13.24    1.16
  -1   5  -6   12.43    1.34
  -1   5  -6   16.79    1.42
  -1   5  -6   12.29    1.02
  -3  -5  -6   18.33    1.43
  -3  -5  -6   18.60    1.59
   3  -5   6   15.51    1.26
   3  -5   6   14.32    1.22
  -3  -5  -6   16.79    1.45
  -3   5  -6   15.21    1.45
  -3   5  -6   13.97    1.44
  -5  -5  -6    7.29    0.98
   5  -5   6    7.35    0.74
  -5  -5  -6    6.41    0.87
   5  -5   6    6.97    0.74
  -5   5  -6    6.83    0.93
  -5   5  -6    9.38    1.01
   7  -5   6    8.36    0.88
   7  -5   6    7.93    0.90
  -7  -5  -6    6.71    1.06
  -7   5  -6    8.02    1.19
  -7   5  -6    7.65    1.03
  -7   5  -6    6.58    0.93
   9  -5   6    0.20    0.39
   9  -5   6   -0.19    0.35
  -9  -5  -6   -0.24    0.51
  -9   5  -6   -0.10    0.47
  -9   5  -6    0.64    0.47
  -9   5  -6    0.48    0.58
 -10  -6   6    0.17    0.38
 -10  -6   6    0.51    0.41
  10  -6  -6    0.29    0.45
  10  -6  -6    0.49    0.49
 -10  -6   6    1.45    0.65
  10   6  -6   -0.24    0.78
 -10   6   6    0.79    0.70
  -8  -6   6   18.95    1.65
   8  -6  -6   19.98    1.73
  -8  -6   6   20.89    2.06
   8  -6  -6   13.64    1.63
  -8  -6   6   20.62    1.68
  -8   6   6   23.17    2.08
  -8   6   6   18.65    1.68
   8   6  -6   19.52    2.22
  -6  -6   6    1.17    0.41
  -6  -6   6   -0.19    0.40
   6  -6  -6    0.52    0.42
   6  -6  -6    0.33    0.32
   6  -6  -6    0.54    0.31
  -6  -6   6    0.80    0.37
  -6   6   6   -0.23    0.34
   6   6  -6    0.43    0.54
  -6   6   6    1.16    0.39
   6   6  -6   -0.81    0.45
  -4  -6   6   20.20    1.66
  -4  -6   6   18.48    1.81
  -4  -6   6   18.79    1.66
  -4  -6   6   17.04    1.99
   4  -6  -6   24.80    1.55
   4  -6  -6   23.83    1.88
  -4   6   6   20.48    1.70
  -4   6   6   23.23    1.78
   4   6  -6   17.14    1.86
   4   6  -6   17.51    1.99
   2  -6  -6    6.38    0.91
  -2  -6   6    7.56    0.81
  -2  -6   6    7.23    1.06
  -2  -6   6    7.00    0.78
   2   6  -6    8.33    1.09
   2   6  -6    7.39    0.97
   0  -6   6  125.03    8.24
   0  -6  -6  106.10    8.55
   0  -6   6  115.71    7.97
   0   6  -6  117.03    8.11
   0   6  -6  118.44    8.38
   0   6  -6  116.63    8.42
  -2  -6  -6    1.58    0.53
  -2  -6  -6    1.08    0.39
   2  -6   6    0.60    0.22
   2  -6   6    0.87    0.24
  -2  -6  -6    0.73    0.36
  -2   6  -6    0.81    0.43
  -2   6  -6    0.86    0.38
  -4  -6  -6   98.07    6.44
  -4  -6  -6   88.92    6.60
   4  -6   6   83.67    6.09
   4  -6   6   83.49    6.29
  -4  -6  -6   99.94    6.69
  -4   6  -6   83.34    6.24
  -4   6  -6   91.59    6.52
   6  -6   6    2.43    0.46
   6  -6   6    1.62    0.41
   6  -6   6    2.18    0.43
  -6  -6  -6    5.78    0.88
  -6   6  -6    3.62    0.69
  -6   6  -6    3.76    0.69
  -8  -6  -6    7.54    1.17
   8  -6   6    5.50    0.87
   8  -6   6    6.60    0.85
  -8   6  -6    6.11    1.03
  -8   6  -6    7.53    1.10
  -8   6  -6    6.48    1.18
  -8   6  -6    6.97    0.98
  10  -6   6    0.75    0.51
  10  -6   6   -0.38    0.47
 -10  -6  -6    0.13    0.72
 -10   6  -6   -0.27    0.50
 -10   6  -6    0.86    0.69
 -10   6  -6    0.95    0.64
  -9  -7   6    0.37    0.58
   9  -7  -6    0.62    0.46
  -9  -7   6    0.42    0.34
  -9  -7   6    0.48    0.37
   9  -7  -6   -0.03    0.39
   9   7  -6    0.80    0.80
  -9   7   6    1.00    0.66
  -7  -7   6   -0.24    0.27
  -7  -7   6    0.71    0.53
   7  -7  -6    0.41    0.48
   7  -7  -6   -0.08    0.32
   7  -7  -6    0.42    0.39
  -7  -7   6    0.29    0.32
  -7   7   6    0.23    0.41
   7   7  -6   -0.57    0.61
  -7   7   6    0.05    0.49
  -5  -7   6    0.60    0.47
   5  -7  -6    0.01    0.43
  -5  -7   6    0.62    0.44
  -5  -7   6    0.29    0.28
  -5  -7   6    0.24    0.26
   5  -7  -6    0.32    0.23
   5  -7  -6    0.37    0.28
   5  -7  -6    0.92    0.49
   5   7  -6    0.59    0.58
  -5   7   6    0.31    0.39
  -5   7   6    0.71    0.38
  -3  -7   6    0.33    0.42
   3  -7  -6   -0.09    0.40
   3  -7  -6   -0.23    0.39
  -3  -7   6    0.08    0.24
  -3  -7   6   -0.09    0.22
   3   7  -6   -0.07    0.43
   3   7  -6    0.18    0.40
  -1  -7   6    3.06    0.44
   1  -7  -6    2.78    0.58
  -1  -7   6    2.65    0.43
   1   7  -6    2.17    0.61
   1   7  -6    4.25    0.73
   1  -7   6    1.21    0.28
  -1  -7  -6    1.78    0.47
   1  -7   6    1.51    0.31
  -1  -7  -6    0.58    0.48
  -1   7  -6    1.03    0.47
  -1   7  -6    1.99    0.53
  -3  -7  -6    3.41    0.75
  -3  -7  -6    3.70    0.63
  -3  -7  -6    4.07    0.70
   3  -7   6    2.56    0.41
   3  -7   6    2.32    0.40
  -3   7  -6    3.33    0.66
  -3   7  -6    4.63    0.77
  -5  -7  -6   -0.34    0.37
   5  -7   6    0.22    0.22
   5  -7   6    0.44    0.25
  -5  -7  -6   -0.33    0.31
   5  -7   6    0.08    0.24
  -5   7  -6    1.03    0.49
  -5   7  -6    0.31    0.41
   7  -7   6    0.36    0.37
   7  -7   6   -0.20    0.28
  -7  -7  -6    0.64    0.57
  -7   7  -6    0.74    0.60
  -7   7  -6    0.57    0.46
  -7   7  -6   -0.43    0.36
  -9  -7  -6    0.98    0.71
   9  -7   6    0.23    0.48
   9  -7   6    0.34    0.41
  -9   7  -6    0.13    0.54
  -9   7  -6   -0.03    0.54
  -9   7  -6    0.40    0.54
  -9   7  -6    0.38    0.71
   8  -8  -6   -0.20    0.33
  -8  -8   6    0.21    0.27
  -8  -8   6    0.32    0.56
  -8  -8   6    0.25    0.31
   8  -8  -6    0.33    0.40
  -8   8   6   -0.03    0.59
   6  -8  -6   13.29    1.21
   6  -8  -6   17.64    1.66
  -6  -8   6   15.27    1.24
  -6  -8   6   12.20    1.63
   6  -8  -6   14.81    1.78
   6  -8  -6   15.38    1.24
  -6  -8   6   14.41    1.25
  -6   8   6   15.02    1.54
   6   8  -6   12.63    1.74
  -4  -8   6    0.91    0.51
   4  -8  -6    0.78    0.50
  -4  -8   6    0.65    0.27
  -4  -8   6    0.65    0.27
   4  -8  -6    1.10    0.54
   4   8  -6    0.08    0.53
  -2  -8   6   36.51    3.68
  -2  -8   6   39.53    2.86
  -2  -8   6   38.57    2.80
   2  -8  -6   40.29    3.11
   2   8  -6   36.97    3.02
   2   8  -6   41.29    3.25
   0  -8   6    0.01    0.18
   0  -8  -6   -0.09    0.34
   0  -8   6    0.04    0.19
   0   8  -6    0.77    0.50
   0   8  -6    0.27    0.41
   2  -8   6   39.51    2.85
   2  -8   6   37.11    2.76
  -2  -8  -6   42.61    3.24
  -2  -8  -6   39.48    3.07
  -2   8  -6   36.20    2.98
  -2   8  -6   37.30    3.15
  -4  -8  -6    0.40    0.35
  -4  -8  -6    0.32    0.41
   4  -8   6    0.73    0.30
  -4  -8  -6    0.85    0.58
   4  -8   6    0.50    0.28
   4  -8   6    0.48    0.25
  -4   8  -6    0.07    0.41
  -4   8  -6    0.63    0.52
   6  -8   6   16.78    1.55
   6  -8   6   15.93    1.45
  -6  -8  -6   17.62    1.93
  -6   8  -6   17.11    1.80
  -6   8  -6   17.36    1.86
   8  -8   6   -0.10    0.39
  -8  -8  -6   -0.22    0.57
   8  -8   6    0.07    0.47
  -8   8  -6   -0.70    0.51
  -8   8  -6   -0.32    0.53
  -8   8  -6   -0.16    0.53
   7  -9  -6    0.46    0.60
   7  -9  -6    0.08    0.31
  -7  -9   6   -0.07    0.53
  -7  -9   6    0.20    0.26
  -5  -9   6    0.37    0.22
  -5  -9   6    0.40    0.59
  -5  -9   6    0.57    0.27
   5  -9  -6    0.38    0.57
   5   9  -6    0.90    0.70
  -3  -9   6    0.34    0.22
   3  -9  -6    0.39    0.54
  -3  -9   6    0.26    0.23
  -3  -9   6    0.50    0.54
   3  -9  -6    0.44    0.43
   3   9  -6    0.57    0.55
   1  -9  -6    0.42    0.37
  -1  -9   6   -0.29    0.46
  -1  -9   6   -0.01    0.18
  -1  -9   6    0.32    0.20
   1   9  -6    0.35    0.44
   1  -9   6    4.10    0.51
   1  -9   6    3.82    0.50
  -1  -9  -6    3.69    0.81
  -1  -9  -6    2.82    0.60
  -1   9  -6    3.65    0.74
  -1   9  -6    3.61    0.79
   3  -9   6    0.46    0.28
   3  -9   6    0.13    0.22
   3  -9   6    0.03    0.24
  -3  -9  -6    0.59    0.35
  -3  -9  -6    0.40    0.55
  -3  -9  -6    0.31    0.44
  -3   9  -6   -0.66    0.42
  -3   9  -6    0.30    0.46
   5  -9   6    0.10    0.29
   5  -9   6   -0.53    0.29
  -5  -9  -6    0.41    0.53
  -5   9  -6   -0.26    0.46
  -5   9  -6    0.29    0.52
   7  -9   6   -0.36    0.33
   7  -9   6   -0.46    0.36
  -7  -9  -6   -0.24    0.61
  -7   9  -6   -0.47    0.53
  -7   9  -6   -0.23    0.50
   6 -10  -6   -0.18    0.63
  -6 -10   6   -0.25    0.20
  -4 -10   6   10.03    0.83
   4 -10  -6    6.04    1.31
  -4 -10   6    8.82    1.38
  -4 -10   6    9.68    0.80
  -2 -10   6    0.88    0.25
  -2 -10   6    0.77    0.26
   2 -10  -6    0.50    0.44
  -2 -10   6   -0.13    0.57
   2  10  -6    0.55    0.56
   0 -10  -6   22.37    1.83
   0 -10  -6   19.84    2.17
   0 -10   6   22.50    1.64
   0 -10   6   19.71    2.56
   0 -10   6   19.05    1.63
   0  10  -6   23.17    2.25
   2 -10   6    3.23    0.54
   2 -10   6    3.18    0.51
  -2 -10  -6    3.24    0.63
  -2 -10  -6    4.29    0.95
  -2  10  -6    4.94    0.95
   4 -10   6   10.34    1.23
   4 -10   6   11.88    1.30
  -4 -10  -6   13.60    1.70
  -4 -10  -6   15.42    1.68
  -4 -10  -6   13.94    1.44
  -4  10  -6   14.31    1.68
  -4  10  -6   15.38    1.65
   6 -10   6   -0.16    0.35
  -6 -10  -6    0.32    0.61
   6 -10   6   -0.55    0.37
  -6  10  -6    0.62    0.68
  -6  10  -6   -0.35    0.54
  -5 -11   6    0.38    0.21
  -3 -11   6    0.42    0.23
  -3 -11   6    0.32    0.63
  -1 -11   6    0.24    0.25
   1 -11  -6    0.67    0.70
  -1 -11   6    0.32    0.26
  -1 -11   6   -0.04    0.23
  -1 -11   6   -0.15    0.65
   1  11  -6   -0.52    0.57
   1 -11   6    2.01    0.42
   1 -11   6    0.73    0.77
  -1 -11  -6    0.29    0.39
  -1 -11  -6    1.99    0.82
   1 -11   6    0.82    0.32
   1 -11   6    0.94    0.37
  -1  11  -6    0.48    0.60
   3 -11   6    0.56    0.84
   3 -11   6    2.67    0.54
  -3 -11  -6    2.83    0.61
  -3 -11  -6    3.05    0.98
   3 -11   6    3.03    0.58
  -3  11  -6    3.37    0.90
   5 -11   6    0.22    0.41
   0 -12   6   -0.44    0.72
   0 -12  -6    0.42    0.74
   0 -12   6    0.13    0.31
   0 -12   6    0.83    0.36
 -10   0   7   -0.61    0.38
  10   0  -7   -0.49    0.41
 -10   0   7    0.31    0.46
 -10   0   7   -0.19    0.39
  10   0  -7    0.58    0.56
  -8   0   7    0.22    0.35
  -8   0   7    0.24    0.34
   8   0  -7   -0.22    0.35
  -8   0   7    0.48    0.38
   8   0  -7   -0.25    0.40
  -6   0   7   -0.25    0.22
   6   0  -7   -0.14    0.31
  -6   0   7   -0.23    0.26
   6   0  -7    0.24    0.30
  -6   0   7   -0.05    0.29
  -4   0   7   -0.14    0.21
  -4   0   7   -0.12    0.17
   4   0  -7    0.03    0.26
   4   0  -7   -0.34    0.29
  -4   0   7   -0.10    0.22
   2   0  -7   -0.07    0.22
   2   0  -7    0.27    0.27
  -2   0   7   -0.12    0.19
  -2   0   7   -0.20    0.19
   0   0  -7    0.09    0.11
   0   0   7    0.03    0.18
   0   0  -7    0.41    0.19
   0   0   7    0.44    0.22
   0   0  -7   -0.19    0.27
   0   0  -7   -0.08    0.17
   2   0   7    0.15    0.17
  -2   0  -7    0.19    0.16
  -2   0  -7    0.17    0.16
  -2   0  -7   -0.01    0.14
  -2   0  -7    0.01    0.13
  -2   0  -7    0.33    0.15
  -2   0  -7    0.35    0.27
  -2   0  -7   -0.17    0.24
   2   0   7    0.06    0.16
  -4   0  -7    0.02    0.23
  -4   0  -7   -0.03    0.13
  -4   0  -7    0.17    0.14
  -4   0  -7    0.17    0.15
  -4   0  -7   -0.10    0.15
  -4   0  -7    0.63    0.28
   4   0   7   -0.05    0.15
   4   0   7   -0.01    0.15
  -6   0  -7   -0.23    0.27
  -6   0  -7   -0.04    0.18
  -6   0  -7    0.06    0.21
  -6   0  -7    0.39    0.27
  -6   0  -7   -0.11    0.16
   6   0   7   -0.04    0.15
  -8   0  -7    0.00    0.37
  -8   0  -7   -0.15    0.21
 -10   0  -7    0.28    0.28
 -10   0  -7   -0.72    0.37
 -11  -1   7    0.31    0.49
  11  -1  -7    0.74    0.49
 -11  -1   7   -0.40    0.43
 -11  -1   7    1.07    0.56
  11  -1  -7    1.15    0.67
  11   1  -7    0.03    0.53
 -11   1   7   -0.20    0.46
 -11   1   7    0.28    0.51
  11   1  -7    0.48    0.62
 -11   1   7    0.64    0.52
  -9  -1   7    0.12    0.38
   9  -1  -7    0.62    0.40
   9  -1  -7   -0.42    0.40
  -9  -1   7   -0.17    0.39
  -9  -1   7   -0.07    0.39
   9   1  -7   -0.08    0.42
  -9   1   7    1.06    0.47
  -9   1   7    0.34    0.37
  -9   1   7    0.45    0.42
   9   1  -7    0.10    0.49
  -7  -1   7    0.07    0.29
   7  -1  -7    0.78    0.43
   7  -1  -7   -0.05    0.32
  -7  -1   7    0.25    0.33
  -7  -1   7   -0.07    0.31
  -7   1   7    0.09    0.31
  -7   1   7   -0.07    0.26
   7   1  -7   -0.01    0.39
   7   1  -7   -0.07    0.32
  -7   1   7    0.72    0.36
   5  -1  -7   18.98    1.64
  -5  -1   7   20.07    1.61
  -5  -1   7   22.18    1.56
  -5  -1   7   20.16    1.65
   5  -1  -7   15.91    1.53
   5   1  -7   16.51    1.77
  -5   1   7   19.50    1.59
  -5   1   7   18.59    1.62
  -5   1   7   20.09    1.48
   5   1  -7   15.02    1.66
   3  -1  -7    4.04    0.59
  -3  -1   7    3.52    0.57
  -3  -1   7    4.50    0.65
   3  -1  -7    4.96    0.65
  -3  -1   7    5.09    0.54
   3   1  -7    5.09    0.75
  -3   1   7    4.50    0.59
  -3   1   7    4.85    0.43
   3   1  -7    4.56    0.65
  -3   1   7    4.53    0.60
   1  -1  -7    5.65    0.54
   1  -1  -7    5.40    0.56
   1  -1  -7    5.60    0.75
   1  -1  -7    5.42    0.56
  -1  -1   7    5.29    0.66
   1  -1  -7    6.40    0.55
  -1  -1   7    4.80    0.62
   1   1  -7    4.16    0.62
   1   1  -7    4.25    0.61
  -1   1   7    5.48    0.59
  -1   1   7    5.71    0.60
  -1  -1  -7    6.17    0.70
  -1  -1  -7    5.29    0.48
  -1  -1  -7    5.38    0.71
   1  -1   7    4.54    0.55
   1  -1   7    4.31    0.55
  -1   1  -7    4.43    0.62
  -1   1  -7    4.12    0.52
  -1   1  -7    4.92    0.56
   1   1   7    4.63    0.51
  -1   1  -7    4.51    0.56
  -3  -1  -7    0.13    0.27
   3  -1   7    0.60    0.20
  -3  -1  -7    0.22    0.28
  -3  -1  -7    0.09    0.21
  -3   1  -7    0.52    0.24
   3   1   7    0.42    0.18
   5  -1   7    3.37    0.41
  -5  -1  -7    1.96    0.46
   5  -1   7    2.57    0.38
  -5  -1  -7    2.32    0.47
  -5   1  -7    2.21    0.49
   5   1   7    2.85    0.37
  -5   1  -7    3.23    0.44
  -5   1  -7    2.51    0.43
  -5   1  -7    3.38    0.45
  -7  -1  -7    1.33    0.47
   7  -1   7    1.80    0.34
  -7   1  -7    1.48    0.36
  -7   1  -7    1.64    0.39
  -7   1  -7    1.26    0.47
   9  -1   7    0.46    0.38
  -9  -1  -7    0.26    0.44
  -9   1  -7    0.32    0.34
  -9   1  -7    1.12    0.59
  -9   1  -7    0.79    0.38
 -11  -1  -7   -0.69    0.56
 -11   1  -7   -0.94    0.51
 -11   1  -7    0.31    0.37
 -10  -2   7   -0.56    0.41
 -10  -2   7   -0.63    0.38
  10  -2  -7    0.47    0.53
  10  -2  -7   -0.21    0.36
 -10  -2   7   -0.30    0.39
 -10   2   7   -0.29    0.42
 -10   2   7    0.45    0.44
  10   2  -7    0.12    0.57
  10   2  -7   -0.02    0.51
 -10   2   7   -0.34    0.47
  -8  -2   7   -0.21    0.32
  -8  -2   7    0.20    0.37
   8  -2  -7   -0.08    0.31
  -8  -2   7    0.04    0.36
   8  -2  -7   -0.37    0.34
  -8   2   7    0.45    0.38
  -8   2   7    0.14    0.32
   8   2  -7    0.27    0.42
  -8   2   7   -0.09    0.38
   8   2  -7    0.05    0.45
  -6  -2   7    0.93    0.39
   6  -2  -7    1.08    0.39
  -6  -2   7    0.58    0.38
  -6  -2   7    0.51    0.34
   6  -2  -7    0.34    0.31
   6   2  -7   -0.23    0.36
   6   2  -7    0.21    0.38
  -6   2   7    0.38    0.33
  -6   2   7    1.00    0.30
  -6   2   7    0.84    0.38
  -4  -2   7    9.35    1.07
   4  -2  -7    9.08    0.97
  -4  -2   7   11.64    1.03
   4  -2  -7    9.34    1.03
  -4  -2   7   12.71    1.15
  -4   2   7    9.40    0.79
   4   2  -7   10.60    1.15
   4   2  -7    7.88    1.11
  -4   2   7    9.42    1.03
  -4   2   7   10.80    1.01
   2  -2  -7   36.65    2.54
   2  -2  -7   40.10    2.61
  -2  -2   7   36.57    2.69
   2  -2  -7   40.01    2.68
   2  -2  -7   36.64    2.92
  -2  -2   7   35.39    2.77
   2  -2  -7   35.02    2.62
   2   2  -7   32.78    2.82
  -2   2   7   36.15    2.61
   2   2  -7   37.42    2.75
  -2   2   7   33.75    2.70
   0  -2   7    1.85    0.38
   0  -2  -7    1.51    0.43
   0  -2   7    1.88    0.36
   0   2  -7    1.74    0.31
   0   2  -7    1.27    0.35
   0   2   7    2.42    0.32
   0   2  -7    1.68    0.39
   0   2  -7    2.47    0.47
  -2  -2  -7    4.73    0.69
  -2  -2  -7    5.07    0.56
   2  -2   7    4.43    0.55
  -2  -2  -7    5.61    0.75
   2  -2   7    4.59    0.56
  -2   2  -7    4.69    0.62
  -2   2  -7    5.06    0.61
  -2   2  -7    4.76    0.58
  -4  -2  -7   -0.07    0.25
   4  -2   7    0.52    0.19
   4  -2   7    0.49    0.19
  -4  -2  -7    0.03    0.24
  -4  -2  -7   -0.16    0.30
  -4   2  -7    0.91    0.27
   4   2   7    0.30    0.15
  -4   2  -7    0.16    0.25
  -4   2  -7    0.97    0.28
   6  -2   7    3.04    0.40
  -6  -2  -7    2.67    0.55
   6  -2   7    2.72    0.41
  -6  -2  -7    2.72    0.51
  -6   2  -7    2.99    0.62
  -6   2  -7    1.51    0.42
  -6   2  -7    2.03    0.42
   8  -2   7    0.04    0.25
  -8  -2  -7   -0.24    0.38
  -8   2  -7    0.24    0.35
  -8   2  -7   -0.23    0.28
  -8   2  -7    0.01    0.45
  10  -2   7    0.66    0.43
 -10  -2  -7    0.68    0.62
 -10   2  -7    0.10    0.45
 -10   2  -7    0.71    0.62
 -10   2  -7    0.01    0.40
 -11  -3   7    0.81    0.65
 -11  -3   7    1.40    0.57
 -11  -3   7    0.82    0.57
  11  -3  -7    0.77    0.49
  11  -3  -7    0.65    0.57
 -11   3   7    0.95    0.64
 -11   3   7    1.39    0.62
  11   3  -7    0.81    0.75
  -9  -3   7    0.20    0.42
   9  -3  -7    0.10    0.43
  -9  -3   7    0.04    0.44
   9  -3  -7   -0.06    0.36
  -9  -3   7   -0.47    0.35
  -9   3   7   -0.66    0.28
  -9   3   7    0.46    0.49
   9   3  -7    0.43    0.63
  -9   3   7   -0.14    0.43
   9   3  -7   -0.45    0.50
  -7  -3   7    0.29    0.38
   7  -3  -7   -0.27    0.31
  -7  -3   7    0.36    0.38
   7  -3  -7    0.02    0.28
  -7  -3   7    0.11    0.35
  -7   3   7   -0.05    0.33
   7   3  -7    0.06    0.41
   7   3  -7   -0.10    0.40
  -7   3   7    0.39    0.36
  -7   3   7    0.07    0.26
  -5  -3   7   -0.30    0.26
  -5  -3   7   -0.20    0.29
  -5  -3   7    0.22    0.29
   5  -3  -7    0.54    0.31
   5  -3  -7    0.03    0.22
   5   3  -7   -0.19    0.34
  -5   3   7    0.33    0.31
   5   3  -7   -0.33    0.34
  -5   3   7   -0.26    0.28
  -5   3   7   -0.08    0.19
   3  -3  -7    0.15    0.21
   3  -3  -7   -0.29    0.19
  -3  -3   7    0.33    0.24
  -3  -3   7   -0.06    0.25
   3  -3  -7    0.16    0.20
  -3  -3   7    0.28    0.27
   3  -3  -7    0.24    0.19
  -3   3   7    0.21    0.15
  -3   3   7    0.10    0.22
   3   3  -7    0.21    0.33
   3   3  -7    0.17    0.37
  -3   3   7    0.25    0.26
   1  -3  -7    2.34    0.51
  -1  -3   7    2.02    0.41
  -1  -3   7    2.03    0.40
  -1   3   7    1.54    0.28
   1   3  -7    1.34    0.40
   1   3  -7    0.91    0.42
   1  -3   7   26.34    1.98
  -1  -3  -7   24.98    2.14
  -1  -3  -7   26.54    1.89
   1  -3   7   27.88    1.93
  -1  -3  -7   25.69    2.14
  -1   3  -7   24.26    2.05
  -1   3  -7   25.61    2.02
  -1   3  -7   23.68    1.97
   3  -3   7    3.34    0.43
  -3  -3  -7    2.43    0.56
  -3  -3  -7    1.66    0.40
  -3  -3  -7    1.25    0.41
   3  -3   7    2.50    0.37
  -3   3  -7    2.31    0.46
  -3   3  -7    3.07    0.38
  -3   3  -7    2.28    0.44
  -5  -3  -7   -0.50    0.21
  -5  -3  -7    0.06    0.30
   5  -3   7    0.47    0.20
   5  -3   7    0.47    0.21
  -5   3  -7    0.01    0.28
  -5   3  -7   -0.09    0.25
  -5   3  -7    0.45    0.38
   7  -3   7    0.05    0.22
   7  -3   7    0.10    0.22
   7  -3   7    0.16    0.23
  -7  -3  -7   -0.14    0.36
  -7   3  -7   -0.40    0.35
  -7   3  -7    0.38    0.32
  -7   3  -7    0.38    0.36
   9  -3   7    0.50    0.39
  -9  -3  -7    0.57    0.51
  -9   3  -7    0.45    0.40
  -9   3  -7    0.90    0.46
  -9   3  -7    0.60    0.59
 -11  -3  -7    1.03    0.65
  11  -3   7    1.05    0.60
 -11   3  -7   -0.05    0.48
 -11   3  -7    0.98    0.70
 -11   3  -7   -0.15    0.55
 -10  -4   7    0.93    0.54
  10  -4  -7    1.30    0.58
  10  -4  -7    0.01    0.40
 -10  -4   7    2.12    0.63
 -10  -4   7    1.04    0.61
  10   4  -7    1.64    0.87
 -10   4   7    2.20    0.70
 -10   4   7    1.53    0.67
   8  -4  -7    1.67    0.47
  -8  -4   7    2.46    0.62
   8  -4  -7    1.69    0.52
  -8  -4   7    1.49    0.50
  -8  -4   7    1.27    0.52
  -8   4   7    2.70    0.65
   8   4  -7    0.51    0.59
   8   4  -7    1.81    0.69
  -8   4   7    0.95    0.42
  -8   4   7    2.63    0.66
   6  -4  -7    0.56    0.28
  -6  -4   7    0.23    0.34
  -6  -4   7    0.12    0.33
  -6  -4   7    0.67    0.36
   6  -4  -7    0.22    0.33
  -6   4   7    0.19    0.35
  -6   4   7   -0.08    0.23
   6   4  -7    0.34    0.48
  -6   4   7    0.08    0.36
   6   4  -7   -0.12    0.40
   4  -4  -7   11.02    0.93
  -4  -4   7   11.39    1.15
   4  -4  -7   10.64    0.97
  -4  -4   7   10.99    1.15
  -4  -4   7   11.89    1.18
  -4  -4   7    9.14    1.10
   4   4  -7   11.34    1.27
  -4   4   7    9.44    0.88
  -4   4   7   10.76    1.09
  -4   4   7   10.36    1.03
   4   4  -7   10.16    1.27
  -2  -4   7   -0.40    0.21
  -2  -4   7   -0.01    0.23
   2  -4  -7    1.13    0.42
   2   4  -7    0.46    0.36
  -2   4   7    0.03    0.18
   2   4  -7   -0.10    0.35
   0  -4  -7    1.00    0.41
   0  -4   7    0.69    0.27
   0  -4   7    1.12    0.30
   0   4  -7    0.68    0.35
   0   4  -7    0.86    0.34
   0   4  -7    1.11    0.36
  -2  -4  -7   12.78    1.38
  -2  -4  -7   13.76    1.18
   2  -4   7   14.82    1.13
   2  -4   7   14.53    1.17
  -2  -4  -7   12.74    1.43
  -2   4  -7   13.14    1.12
  -2   4  -7   13.55    1.22
  -2   4  -7   14.75    1.40
  -4  -4  -7    8.00    1.01
   4  -4   7    7.93    0.78
   4  -4   7    9.14    0.78
  -4  -4  -7    9.59    1.15
  -4  -4  -7    9.04    1.02
  -4   4  -7    9.78    1.05
  -4   4  -7    7.87    0.95
  -6  -4  -7    0.28    0.40
  -6  -4  -7    0.95    0.40
   6  -4   7    0.54    0.23
   6  -4   7    0.57    0.24
  -6   4  -7    0.95    0.46
  -6   4  -7    1.01    0.36
  -6   4  -7    0.65    0.39
   8  -4   7    1.94    0.48
  -8  -4  -7    2.67    0.70
   8  -4   7    2.18    0.47
  -8   4  -7    2.46    0.62
  -8   4  -7    1.51    0.51
  -8   4  -7    2.36    0.74
 -10  -4  -7    0.25    0.57
  10  -4   7    0.71    0.46
 -10   4  -7    0.48    0.48
 -10   4  -7   -0.46    0.51
 -10   4  -7    0.74    0.54
  -9  -5   7    1.56    0.64
   9  -5  -7    0.85    0.44
  -9  -5   7    2.16    0.62
   9  -5  -7    1.57    0.54
  -9  -5   7    1.45    0.55
  -9   5   7    2.96    0.82
   9   5  -7    1.17    0.81
  -7  -5   7    0.48    0.41
   7  -5  -7    0.03    0.29
  -7  -5   7   -0.32    0.35
   7  -5  -7    0.73    0.38
  -7  -5   7    0.64    0.39
   7   5  -7    0.51    0.56
  -7   5   7    0.66    0.37
  -7   5   7    0.35    0.44
   7   5  -7    0.83    0.62
  -5  -5   7    0.08    0.32
   5  -5  -7    0.04    0.28
   5  -5  -7    0.14    0.24
  -5  -5   7    0.46    0.37
  -5  -5   7   -0.39    0.28
  -5   5   7    0.11    0.32
  -5   5   7    0.34    0.26
   5   5  -7    0.32    0.46
   5   5  -7   -0.54    0.37
  -3  -5   7    2.10    0.47
   3  -5  -7    1.80    0.27
  -3  -5   7    1.60    0.41
   3  -5  -7    2.87    0.62
  -3  -5   7    1.01    0.42
   3   5  -7    1.64    0.58
   3   5  -7    1.17    0.48
  -3   5   7    1.30    0.36
  -1  -5   7    0.53    0.28
  -1  -5   7    0.47    0.26
   1  -5  -7    0.38    0.35
   1   5  -7    0.89    0.40
   1   5  -7    0.24    0.37
   1  -5   7    0.36    0.22
  -1  -5  -7    0.75    0.39
  -1  -5  -7    0.98    0.30
   1  -5   7    1.04    0.28
  -1  -5  -7    0.42    0.43
  -1   5  -7    0.31    0.34
  -1   5  -7    0.52    0.24
  -1   5  -7    0.50    0.36
  -3  -5  -7    1.47    0.58
  -3  -5  -7    3.69    0.61
   3  -5   7    1.88    0.35
  -3  -5  -7    1.90    0.46
   3  -5   7    2.42    0.38
  -3   5  -7    1.90    0.50
  -3   5  -7    3.33    0.58
   5  -5   7   -0.11    0.16
  -5  -5  -7   -0.13    0.29
  -5  -5  -7    0.48    0.40
   5  -5   7    0.00    0.19
  -5   5  -7   -0.06    0.31
  -5   5  -7   -0.09    0.33
   7  -5   7    0.45    0.29
   7  -5   7    0.10    0.25
  -7  -5  -7   -0.01    0.46
   7  -5   7    0.31    0.28
  -7   5  -7    0.25    0.37
  -7   5  -7   -0.35    0.36
  -7   5  -7   -0.01    0.47
   9  -5   7    0.09    0.37
   9  -5   7   -0.18    0.36
  -9  -5  -7   -0.27    0.48
  -9   5  -7    1.11    0.66
  -9   5  -7    0.13    0.44
  -9   5  -7    0.43    0.55
   8  -6  -7    1.89    0.51
   8  -6  -7    2.11    0.55
  -8  -6   7    2.23    0.70
  -8  -6   7    1.87    0.52
  -8  -6   7    2.88    0.62
   8   6  -7    2.21    0.85
  -8   6   7    3.82    0.78
   6  -6  -7    1.94    0.44
  -6  -6   7    1.49    0.56
   6  -6  -7    1.87    0.41
   6  -6  -7    2.38    0.62
  -6  -6   7    2.00    0.51
  -6  -6   7    1.98    0.49
   6   6  -7    2.64    0.72
  -6   6   7    1.48    0.43
   6   6  -7    1.55    0.64
  -6   6   7    1.67    0.54
  -4  -6   7    5.20    0.80
   4  -6  -7    2.68    0.40
   4  -6  -7    3.70    0.75
  -4  -6   7    3.78    0.61
  -4  -6   7    3.24    0.67
  -4  -6   7    3.07    0.55
  -4   6   7    4.19    0.63
   4   6  -7    4.42    0.81
   4   6  -7    2.23    0.72
  -2  -6   7    7.73    0.89
   2  -6  -7    9.18    1.12
  -2  -6   7    9.98    0.99
   2   6  -7    8.27    1.10
   2   6  -7    8.71    1.19
   0  -6  -7    0.12    0.36
   0  -6   7    0.24    0.24
   0  -6   7    0.45    0.24
   0   6  -7    0.33    0.27
   0   6  -7    0.08    0.38
   0   6  -7    0.13    0.34
  -2  -6  -7    6.42    0.77
  -2  -6  -7    4.62    0.88
  -2  -6  -7    6.41    0.86
   2  -6   7    6.50    0.68
   2  -6   7    6.64    0.69
  -2   6  -7    4.57    0.76
  -2   6  -7    3.98    0.78
   4  -6   7    9.91    0.89
  -4  -6  -7    9.18    1.29
   4  -6   7   10.26    0.88
  -4  -6  -7    9.60    1.13
  -4  -6  -7   10.21    1.15
  -4   6  -7    9.44    1.20
  -4   6  -7    9.41    1.14
   6  -6   7    3.56    0.53
   6  -6   7    2.63    0.49
  -6  -6  -7    3.06    0.73
   6  -6   7    3.54    0.53
  -6  -6  -7    2.17    0.59
  -6   6  -7    2.88    0.69
  -6   6  -7    3.04    0.78
  -6   6  -7    3.02    0.71
   8  -6   7    0.19    0.34
   8  -6   7    0.75    0.42
  -8  -6  -7    0.64    0.62
  -8   6  -7    0.15    0.48
  -8   6  -7   -0.07    0.43
  -8   6  -7    0.06    0.44
  -8   6  -7    1.02    0.67
  -9  -7   7   -0.31    0.55
  -9  -7   7   -0.14    0.36
   9  -7  -7    0.25    0.46
  -9  -7   7   -0.02    0.35
   9  -7  -7    0.10    0.38
  -9   7   7    0.10    0.64
   9   7  -7    0.26    0.80
   7  -7  -7    3.81    0.85
   7  -7  -7    4.23    0.62
  -7  -7   7    3.41    0.80
  -7  -7   7    4.67    0.66
  -7  -7   7    4.57    0.71
   7  -7  -7    3.70    0.63
  -7   7   7    4.95    0.88
   7   7  -7    3.13    0.98
  -5  -7   7    0.39    0.45
   5  -7  -7   -0.16    0.22
  -5  -7   7    0.09    0.30
   5  -7  -7    0.08    0.45
   5  -7  -7    0.05    0.47
  -5  -7   7    0.56    0.33
  -5  -7   7    0.19    0.45
   5   7  -7   -0.25    0.50
   3  -7  -7    1.05    0.52
  -3  -7   7    2.09    0.64
  -3  -7   7    3.02    0.51
  -3  -7   7    3.66    0.55
   3   7  -7    4.18    0.85
   3   7  -7    3.57    0.72
   1  -7  -7    3.79    0.70
  -1  -7   7    3.28    0.52
  -1  -7   7    3.74    0.53
   1   7  -7    4.92    0.80
   1   7  -7    2.41    0.69
  -1  -7  -7    1.75    0.49
  -1  -7  -7    2.16    0.64
   1  -7   7    1.73    0.35
   1  -7   7    0.94    0.29
  -1   7  -7    1.74    0.55
  -1   7  -7    2.05    0.57
   3  -7   7    4.02    0.55
  -3  -7  -7    4.96    0.79
  -3  -7  -7    5.15    0.92
   3  -7   7    4.62    0.57
  -3  -7  -7    5.25    0.81
  -3   7  -7    3.98    0.79
  -3   7  -7    4.70    0.80
  -5  -7  -7    1.48    0.68
   5  -7   7    0.60    0.28
  -5  -7  -7    0.70    0.52
   5  -7   7    0.47    0.26
  -5  -7  -7    0.63    0.40
  -5   7  -7    0.10    0.45
  -5   7  -7    0.28    0.44
   7  -7   7    0.54    0.34
  -7  -7  -7    1.03    0.62
   7  -7   7    0.50    0.36
  -7   7  -7    1.36    0.70
  -7   7  -7    0.63    0.49
  -7   7  -7    0.79    0.57
  -9  -7  -7   -0.46    0.60
   9  -7   7    0.75    0.52
   9  -7   7    0.05    0.43
  -9   7  -7   -0.26    0.50
  -9   7  -7   -0.05    0.60
  -9   7  -7   -0.33    0.68
  -9   7  -7    0.19    0.56
   8  -8  -7    0.82    0.41
   8  -8  -7   -0.61    0.58
  -8  -8   7    0.32    0.35
   8  -8  -7    1.27    0.47
  -8  -8   7    0.16    0.54
  -8  -8   7    0.75    0.37
   8   8  -7    1.24    0.84
  -6  -8   7    0.88    0.54
   6  -8  -7    0.03    0.56
   6  -8  -7    0.57    0.56
   6  -8  -7    0.68    0.31
  -6  -8   7    0.84    0.37
  -6  -8   7    0.72    0.34
   6   8  -7    0.95    0.71
  -4  -8   7    7.67    1.22
  -4  -8   7    9.44    0.95
   4  -8  -7    9.51    1.21
  -4  -8   7    9.13    0.98
   4   8  -7   10.94    1.48
  -2  -8   7    3.65    0.87
  -2  -8   7    4.73    0.61
   2  -8  -7    5.14    0.82
  -2  -8   7    4.90    0.64
   2   8  -7    4.97    0.96
   2   8  -7    3.54    0.80
   0  -8  -7   10.24    1.29
   0  -8   7   12.01    1.05
   0  -8   7   12.81    1.06
   0   8  -7   12.39    1.49
   0   8  -7   12.76    1.40
  -2  -8  -7    5.59    0.99
   2  -8   7    5.77    0.66
  -2  -8  -7    6.10    0.85
   2  -8   7    5.86    0.66
  -2   8  -7    4.63    0.91
  -2   8  -7    6.20    0.96
   4  -8   7    0.38    0.27
  -4  -8  -7    0.82    0.52
  -4  -8  -7    0.73    0.38
   4  -8   7    0.44    0.25
  -4  -8  -7    1.10    0.66
  -4   8  -7    0.68    0.51
  -4   8  -7    0.98    0.48
   6  -8   7    0.92    0.37
  -6  -8  -7   -0.09    0.50
   6  -8   7    0.24    0.33
  -6   8  -7    0.84    0.57
  -6   8  -7    0.00    0.52
  -8  -8  -7    0.70    0.68
   8  -8   7    0.94    0.51
   8  -8   7    1.96    0.55
  -8   8  -7    1.99    0.77
  -8   8  -7    2.59    0.87
  -8   8  -7    1.44    0.64
  -7  -9   7   -0.05    0.28
  -7  -9   7    0.10    0.27
  -7  -9   7    0.24    0.57
   7  -9  -7    0.29    0.31
  -5  -9   7   -0.15    0.59
   5  -9  -7    0.15    0.54
  -5  -9   7   -0.21    0.26
   5  -9  -7    0.02    0.51
  -5  -9   7    0.45    0.26
   5   9  -7   -0.03    0.65
  -3  -9   7    0.30    0.57
  -3  -9   7    1.06    0.31
  -3  -9   7    1.11    0.31
   3  -9  -7    0.44    0.53
   3   9  -7    0.71    0.64
  -1  -9   7    2.07    0.40
  -1  -9   7    1.36    0.67
  -1  -9   7    1.86    0.37
   1  -9  -7    1.69    0.54
   1   9  -7    1.88    0.69
  -1  -9  -7    0.87    0.58
  -1  -9  -7    0.75    0.41
   1  -9   7    0.48    0.24
   1  -9   7    1.21    0.32
  -1   9  -7    0.02    0.49
  -1   9  -7    1.63    0.66
   3  -9   7    1.36    0.37
  -3  -9  -7    1.01    0.45
  -3  -9  -7   -0.21    0.60
  -3  -9  -7    1.92    0.59
   3  -9   7    1.24    0.33
  -3   9  -7    1.00    0.57
  -3   9  -7    1.00    0.62
  -5  -9  -7   -0.20    0.38
   5  -9   7   -0.06    0.29
   5  -9   7    0.55    0.32
  -5  -9  -7   -0.71    0.59
  -5  -9  -7    0.53    0.59
   5  -9   7    0.72    0.36
  -5   9  -7   -0.23    0.50
  -5   9  -7   -0.41    0.42
   7  -9   7    0.69    0.45
   7  -9   7    0.87    0.46
  -7  -9  -7   -0.30    0.60
  -7   9  -7   -0.13    0.61
  -7   9  -7    0.87    0.62
   6 -10  -7    2.74    0.90
  -6 -10   7    2.28    0.42
  -4 -10   7   -0.27    0.56
  -4 -10   7    0.14    0.22
  -4 -10   7   -0.06    0.23
   4  10  -7    1.01    0.73
  -2 -10   7    5.26    0.64
   2 -10  -7    6.48    0.93
  -2 -10   7    4.70    1.09
  -2 -10   7    5.84    0.63
   2  10  -7    4.79    1.04
   0 -10  -7    3.22    0.90
   0 -10   7    4.98    1.13
   0 -10  -7    4.29    0.74
   0 -10   7    5.25    0.60
   0 -10   7    4.34    0.57
   0  10  -7    5.03    1.00
  -2 -10  -7    2.67    0.88
  -2 -10  -7    2.39    0.60
   2 -10   7    2.60    0.47
   2 -10   7    2.57    0.46
  -2  10  -7    2.35    0.78
  -4 -10  -7    1.51    0.53
  -4 -10  -7    1.56    0.84
   4 -10   7    1.93    0.49
   4 -10   7    2.15    0.47
  -4 -10  -7    1.47    0.63
   4 -10   7    1.35    0.43
  -4  10  -7    1.07    0.63
  -4  10  -7    1.05    0.65
   6 -10   7    1.94    0.56
   6 -10   7    2.32    0.59
  -6 -10  -7    3.12    0.90
  -6  10  -7    3.48    0.90
  -6  10  -7    3.58    0.96
  -3 -11   7    0.10    0.23
  -3 -11   7    0.24    0.24
  -3 -11   7   -0.50    0.59
  -1 -11   7    0.14    0.24
   1 -11  -7   -0.59    0.63
  -1 -11   7   -0.05    0.22
  -1 -11   7    0.48    0.71
   1  11  -7   -0.02    0.62
   1 -11   7    0.14    0.30
  -1 -11  -7    0.05    0.44
   1 -11   7    0.31    0.29
  -1 -11  -7    0.22    0.65
   1 -11   7    0.14    0.26
   1 -11   7    1.35    0.82
  -1  11  -7    0.14    0.61
   3 -11   7    0.58    0.37
  -3 -11  -7   -0.56    0.67
   3 -11   7    0.11    0.33
   3 -11   7    0.93    0.82
  -3 -11  -7    0.51    0.44
  -3  11  -7    0.76    0.70
  10   0  -8    1.13    0.65
 -10   0   8    1.70    0.56
 -10   0   8    0.98    0.53
  10   0  -8    0.19    0.48
  -8   0   8   51.77    3.76
   8   0  -8   36.44    3.70
  -8   0   8   56.31    3.62
  -8   0   8   45.43    3.61
   8   0  -8   49.02    3.64
   6   0  -8    0.31    0.32
   6   0  -8    0.59    0.43
  -6   0   8    0.83    0.38
  -6   0   8    0.18    0.33
  -6   0   8    0.38    0.28
  -4   0   8  161.48   11.59
  -4   0   8  169.80   11.66
   4   0  -8  171.24   11.64
  -4   0   8  164.82   12.01
   4   0  -8  185.29   12.07
   2   0  -8    2.07    0.44
  -2   0   8    2.36    0.43
   2   0  -8    2.55    0.46
  -2   0   8    2.37    0.42
   0   0   8  297.07   19.03
   0   0  -8  268.12   20.32
   0   0  -8  272.11   19.25
   0   0   8  291.55   19.70
   0   0  -8  282.98   18.98
   0   0  -8  284.18   19.64
   0   0  -8  286.30   18.98
   2   0   8   18.01    1.36
   2   0   8   16.85    1.30
  -2   0  -8   15.15    1.26
  -2   0  -8   17.99    1.43
  -2   0  -8   16.71    1.30
  -2   0  -8   16.52    1.24
  -2   0  -8   16.40    1.48
  -2   0  -8   16.09    1.23
  -2   0  -8   17.10    1.25
   4   0   8  139.58    8.96
  -4   0  -8  128.74    8.90
  -4   0  -8  128.32    9.22
   4   0   8  140.29    9.28
  -4   0  -8  123.56    8.90
  -4   0  -8  134.68    9.64
  -6   0  -8    0.43    0.21
   6   0   8    0.53    0.22
  -6   0  -8    0.49    0.22
  -6   0  -8    0.14    0.32
  -6   0  -8    0.63    0.31
  -8   0  -8   49.29    3.52
  -8   0  -8   53.78    3.95
 -10   0  -8    0.05    0.52
  11  -1  -8   -0.88    0.40
  11  -1  -8    0.33    0.57
 -11  -1   8   -0.27    0.49
 -11  -1   8   -0.36    0.46
 -11   1   8    0.05    0.53
  11   1  -8    0.24    0.58
 -11   1   8    0.02    0.49
  11   1  -8    0.64    0.62
   9  -1  -8   -0.40    0.34
  -9  -1   8   -0.42    0.37
   9  -1  -8   -0.18    0.44
  -9  -1   8    0.20    0.40
  -9  -1   8    0.23    0.42
   9   1  -8    0.44    0.45
  -9   1   8    0.31    0.45
   9   1  -8    0.30    0.52
  -9   1   8   -0.12    0.39
  -7  -1   8    1.55    0.48
  -7  -1   8    2.14    0.47
  -7  -1   8    1.27    0.43
   7  -1  -8    1.22    0.48
   7  -1  -8    1.11    0.43
   7   1  -8    1.39    0.54
  -7   1   8    1.61    0.42
  -7   1   8    1.38    0.48
   7   1  -8    1.55    0.53
  -7   1   8    1.41    0.49
   5  -1  -8    4.87    0.75
   5  -1  -8    4.85    0.81
  -5  -1   8    6.91    0.72
  -5  -1   8    6.22    0.83
  -5  -1   8    7.05    0.88
  -5   1   8    5.47    0.78
   5   1  -8    5.27    0.88
  -5   1   8    4.95    0.76
   5   1  -8    6.40    0.87
  -5   1   8    8.12    0.69
  -3  -1   8    1.04    0.38
  -3  -1   8    1.37    0.40
   3  -1  -8    2.04    0.40
   3   1  -8    1.86    0.47
   3   1  -8    1.46    0.43
  -3   1   8    1.65    0.39
  -3   1   8    1.63    0.38
   1  -1  -8    4.24    0.70
   1  -1  -8    4.13    0.48
  -1  -1   8    3.78    0.57
   1  -1  -8    4.18    0.46
  -1  -1   8    3.91    0.56
   1  -1  -8    3.51    0.46
   1  -1  -8    4.53    0.47
   1   1  -8    3.48    0.55
  -1   1   8    3.89    0.52
  -1   1   8    3.28    0.51
   1   1  -8    3.88    0.67
   1   1  -8    3.71    0.57
  -1  -1  -8    1.60    0.42
   1  -1   8    1.82    0.35
  -1  -1  -8    1.20    0.42
  -1  -1  -8    1.66    0.26
   1  -1   8    1.28    0.33
  -1   1  -8    1.47    0.29
  -1   1  -8    1.71    0.34
  -1   1  -8    1.27    0.40
   1   1   8    1.60    0.31
  -1   1  -8    2.04    0.38
  -1   1  -8    1.87    0.36
   3  -1   8    2.86    0.44
  -3  -1  -8    2.66    0.44
  -3  -1  -8    2.71    0.57
  -3  -1  -8    2.91    0.56
   3  -1   8    3.07    0.44
  -3   1  -8    2.88    0.41
  -3   1  -8    3.08    0.43
   3   1   8    3.92    0.45
  -3   1  -8    3.31    0.44
  -3   1  -8    2.72    0.50
  -3   1  -8    3.62    0.51
  -5  -1  -8   16.86    1.52
   5  -1   8   18.91    1.38
  -5  -1  -8   13.38    1.42
   5  -1   8   17.35    1.32
  -5   1  -8   18.24    1.35
  -5   1  -8   16.14    1.48
  -5   1  -8   17.86    1.40
   5   1   8   17.73    1.35
  -5   1  -8   16.05    1.44
  -7  -1  -8   -0.11    0.33
   7  -1   8    0.06    0.19
  -7   1  -8    0.03    0.27
  -7   1  -8   -0.52    0.34
  -7   1  -8    0.21    0.26
  -9  -1  -8    0.15    0.42
  -9   1  -8    0.17    0.30
  -9   1  -8   -0.29    0.28
  -9   1  -8   -0.33    0.46
 -11  -1  -8   -0.27    0.57
 -11   1  -8   -0.18    0.61
 -11   1  -8    0.13    0.34
 -10  -2   8   12.17    1.35
  10  -2  -8    8.44    1.27
 -10  -2   8   13.11    1.42
 -10  -2   8   10.22    1.27
  10  -2  -8    7.23    1.13
  10   2  -8    8.41    1.30
  10   2  -8    8.16    1.38
 -10   2   8    9.82    1.30
 -10   2   8   11.12    1.37
   8  -2  -8   -0.23    0.32
  -8  -2   8    0.04    0.38
  -8  -2   8    0.42    0.40
   8  -2  -8    0.59    0.45
  -8  -2   8   -0.13    0.38
  -8   2   8   -0.18    0.39
   8   2  -8    0.16    0.50
   8   2  -8    0.18    0.44
  -8   2   8    0.58    0.45
  -6  -2   8   48.58    3.51
  -6  -2   8   41.19    3.61
   6  -2  -8   44.34    3.46
  -6  -2   8   48.20    3.56
   6  -2  -8   44.90    3.59
  -6   2   8   49.53    3.65
  -6   2   8   53.06    3.42
   6   2  -8   46.52    3.77
  -6   2   8   47.65    3.52
   6   2  -8   46.94    3.60
   4  -2  -8    5.57    0.73
   4  -2  -8    5.18    0.71
  -4  -2   8    5.21    0.77
  -4  -2   8    5.73    0.79
  -4  -2   8    5.43    0.68
   4   2  -8    6.09    0.88
  -4   2   8    6.52    0.56
  -4   2   8    7.23    0.84
   4   2  -8    6.44    0.93
  -4   2   8    6.25    0.77
   2  -2  -8  461.97   28.89
   2  -2  -8  419.66   28.84
   2  -2  -8  433.34   27.91
  -2  -2   8  412.23   28.02
   2  -2  -8  422.98   29.93
   2  -2  -8  413.36   27.86
  -2  -2   8  403.79   29.01
   2   2  -8  394.98   28.05
  -2   2   8  394.50   28.93
   2   2  -8  412.80   29.07
  -2   2   8  416.54   27.94
   0  -2   8    9.17    0.90
   0  -2   8    8.85    0.92
   0  -2  -8    6.88    0.95
   0   2  -8    7.70    0.87
   0   2  -8    8.94    0.97
   0   2  -8    7.79    0.90
   0   2  -8    8.46    0.78
   0   2   8    8.80    0.78
   2  -2   8  186.30   13.29
   2  -2   8  193.06   12.85
  -2  -2  -8  194.82   13.55
  -2  -2  -8  188.51   13.05
  -2  -2  -8  192.39   13.80
   2   2   8  183.13   13.21
  -2   2  -8  190.88   13.33
  -2   2  -8  186.02   12.86
  -2   2  -8  198.66   13.71
   4  -2   8    7.89    0.80
  -4  -2  -8    8.63    0.92
   4  -2   8    8.80    0.74
  -4  -2  -8    8.16    1.00
  -4  -2  -8    7.47    0.96
  -4   2  -8    8.20    0.84
  -4   2  -8    8.73    0.89
  -4   2  -8    6.88    0.89
  -4   2  -8    7.13    0.81
  -6  -2  -8   62.17    4.66
   6  -2   8   63.51    4.40
   6  -2   8   65.96    4.55
  -6  -2  -8   60.95    4.79
  -6   2  -8   68.96    4.65
  -6   2  -8   61.96    4.70
  -6   2  -8   58.12    4.45
  -8  -2  -8    3.91    0.81
   8  -2   8    5.40    0.70
  -8   2  -8    6.05    0.99
  -8   2  -8    4.00    0.67
  -8   2  -8    5.07    0.70
  10  -2   8   19.68    1.84
 -10  -2  -8   16.47    2.04
 -10   2  -8   18.77    1.70
 -10   2  -8   21.69    2.26
 -10   2  -8   21.14    1.77
  -9  -3   8    1.55    0.57
  -9  -3   8    0.95    0.47
  -9  -3   8    1.90    0.60
   9  -3  -8    1.19    0.53
   9  -3  -8    0.19    0.42
   9   3  -8    0.59    0.66
  -9   3   8    1.14    0.59
  -9   3   8    0.78    0.53
   9   3  -8    1.18    0.66
  -7  -3   8    4.71    0.81
  -7  -3   8    3.88    0.73
  -7  -3   8    4.81    0.76
   7  -3  -8    3.37    0.63
   7  -3  -8    3.98    0.72
   7   3  -8    4.46    0.93
   7   3  -8    5.08    0.87
  -7   3   8    4.42    0.76
  -7   3   8    6.10    0.87
   5  -3  -8    2.61    0.50
  -5  -3   8    1.43    0.50
   5  -3  -8    2.91    0.48
  -5  -3   8    1.46    0.45
  -5  -3   8    2.46    0.56
   5   3  -8    2.09    0.64
  -5   3   8    2.55    0.54
   5   3  -8    2.32    0.62
  -5   3   8    2.45    0.52
  -5   3   8    2.48    0.36
   3  -3  -8    1.20    0.32
   3  -3  -8    1.90    0.31
  -3  -3   8    1.73    0.45
   3  -3  -8    1.16    0.31
   3  -3  -8    1.32    0.27
  -3  -3   8    1.90    0.47
   3  -3  -8    2.11    0.61
  -3   3   8    1.54    0.40
   3   3  -8    0.83    0.48
  -3   3   8    2.00    0.40
   3   3  -8    1.43    0.49
   1  -3  -8   10.23    1.26
  -1  -3   8   10.43    1.16
  -1  -3   8   13.03    1.11
   1   3  -8   14.26    1.32
   1   3  -8   11.74    1.30
  -1   3   8   13.11    1.07
  -1  -3  -8    2.57    0.59
  -1  -3  -8    1.75    0.50
  -1  -3  -8    2.00    0.32
   1  -3   8    2.60    0.43
   1  -3   8    2.45    0.42
  -1   3  -8    2.49    0.46
  -1   3  -8    2.69    0.49
  -1   3  -8    1.06    0.37
   3  -3   8   34.28    2.58
   3  -3   8   34.99    2.50
  -3  -3  -8   32.17    2.77
  -3  -3  -8   29.48    2.75
  -3  -3  -8   35.24    2.60
  -3   3  -8   36.37    2.62
  -3   3  -8   34.62    2.66
  -3   3  -8   36.99    2.58
  -5  -3  -8    3.94    0.70
  -5  -3  -8    5.11    0.75
   5  -3   8    5.41    0.60
   5  -3   8    4.95    0.59
  -5   3  -8    4.64    0.66
  -5   3  -8    4.01    0.68
  -5   3  -8    5.88    0.84
  -5   3  -8    5.68    0.61
  -7  -3  -8    0.91    0.51
  -7  -3  -8    1.40    0.47
   7  -3   8    0.97    0.31
  -7   3  -8    0.50    0.47
  -7   3  -8    0.75    0.36
  -7   3  -8    0.78    0.43
  -9  -3  -8    0.80    0.52
   9  -3   8    0.46    0.41
  -9   3  -8    0.55    0.45
  -9   3  -8    0.18    0.54
  -9   3  -8    1.13    0.49
 -10  -4   8   -0.08    0.48
 -10  -4   8    0.62    0.49
 -10  -4   8    0.44    0.50
  10  -4  -8    0.13    0.45
  10  -4  -8    0.08    0.43
 -10   4   8    1.17    0.65
 -10   4   8   -0.24    0.55
  10   4  -8    0.00    0.69
  -8  -4   8   22.34    1.77
   8  -4  -8   14.95    1.66
  -8  -4   8   18.28    1.87
   8  -4  -8   14.20    1.69
  -8  -4   8   20.42    1.76
   8   4  -8   17.73    2.11
  -8   4   8   20.16    1.98
   8   4  -8   23.23    2.21
  -6  -4   8    2.68    0.61
  -6  -4   8    1.99    0.54
  -6  -4   8    1.52    0.50
   6  -4  -8    1.08    0.38
   6  -4  -8    0.96    0.42
   6   4  -8    0.65    0.54
  -6   4   8    2.06    0.54
   6   4  -8    2.26    0.72
  -4  -4   8   79.31    6.00
  -4  -4   8   87.15    5.85
  -4  -4   8   71.14    6.93
  -4  -4   8   80.27    5.87
   4  -4  -8   90.12    5.85
   4  -4  -8   85.45    5.68
  -4   4   8   81.70    5.70
   4   4  -8   83.68    5.93
  -4   4   8   86.69    5.97
   4   4  -8   77.93    6.14
  -2  -4   8    7.34    0.92
   2  -4  -8    9.76    1.14
  -2  -4   8    8.82    0.96
  -2   4   8    7.78    0.83
   2   4  -8    9.77    1.19
   2   4  -8    7.74    1.03
   0  -4  -8  254.28   18.78
   0  -4   8  259.35   17.55
   0  -4   8  270.40   18.16
   0   4  -8  258.16   18.65
   0   4  -8  253.80   18.26
   0   4  -8  263.94   17.63
   2  -4   8    1.51    0.34
   2  -4   8    1.17    0.33
  -2  -4  -8    1.86    0.50
  -2  -4  -8    1.94    0.59
  -2  -4  -8    1.45    0.35
  -2   4  -8    2.27    0.38
  -2   4  -8    2.64    0.52
  -2   4  -8    2.02    0.44
  -4  -4  -8   84.00    6.52
  -4  -4  -8   77.48    6.46
  -4  -4  -8   85.88    6.22
   4  -4   8   84.39    6.00
   4  -4   8   85.58    6.19
  -4   4  -8   93.07    6.30
  -4   4  -8   90.52    6.34
  -4   4  -8   92.90    6.12
  -6  -4  -8    1.03    0.42
   6  -4   8    0.64    0.27
  -6  -4  -8    0.09    0.39
   6  -4   8    0.68    0.26
  -6   4  -8    0.74    0.43
  -6   4  -8    0.67    0.49
  -6   4  -8    0.43    0.35
   8  -4   8   27.13    2.26
  -8  -4  -8   27.01    2.48
  -8   4  -8   26.57    2.31
  -8   4  -8   30.71    2.43
  -8   4  -8   30.35    2.58
 -10  -4  -8    3.17    0.83
  10  -4   8    1.32    0.53
 -10   4  -8    2.94    0.70
 -10   4  -8    2.37    0.69
 -10   4  -8    2.82    0.94
   9  -5  -8    0.51    0.46
  -9  -5   8   -0.30    0.50
  -9  -5   8    1.07    0.54
   9  -5  -8    0.68    0.44
  -9  -5   8    0.81    0.48
   9   5  -8    0.08    0.69
  -9   5   8    0.80    0.66
   7  -5  -8    0.20    0.30
  -7  -5   8    0.03    0.44
  -7  -5   8   -0.60    0.34
   7  -5  -8    0.36    0.37
  -7  -5   8    0.11    0.39
   7   5  -8    0.06    0.59
   7   5  -8   -0.45    0.49
  -7   5   8    0.25    0.45
  -5  -5   8    0.61    0.38
   5  -5  -8    0.31    0.28
  -5  -5   8    0.60    0.43
   5  -5  -8    0.63    0.29
  -5  -5   8    0.70    0.41
   5   5  -8    0.96    0.52
  -5   5   8    0.59    0.37
   5   5  -8    0.66    0.55
  -3  -5   8    9.76    1.27
  -3  -5   8   12.35    1.23
  -3  -5   8   10.69    1.17
   3  -5  -8    8.14    1.21
  -3   5   8   11.22    1.11
   3   5  -8   13.45    1.50
   3   5  -8   13.72    1.45
  -1  -5   8    0.64    0.31
  -1  -5   8    0.90    0.33
   1  -5  -8    1.40    0.49
   1   5  -8    0.63    0.46
   1   5  -8    0.79    0.44
  -1  -5  -8    0.64    0.40
  -1  -5  -8    1.48    0.57
   1  -5   8    0.85    0.32
  -1  -5  -8    1.50    0.35
   1  -5   8    1.34    0.33
  -1   5  -8    1.70    0.48
  -1   5  -8    1.43    0.34
  -1   5  -8    2.07    0.52
  -3  -5  -8    2.40    0.64
   3  -5   8    1.79    0.36
   3  -5   8    2.39    0.40
  -3  -5  -8    2.34    0.49
  -3  -5  -8    2.08    0.55
  -3   5  -8    2.31    0.57
  -3   5  -8    1.89    0.49
   5  -5   8    0.53    0.25
   5  -5   8    1.35    0.32
  -5  -5  -8    1.36    0.53
  -5  -5  -8    1.08    0.46
  -5  -5  -8    1.74    0.64
  -5   5  -8    1.01    0.45
  -5   5  -8    1.21    0.45
  -7  -5  -8    0.92    0.44
   7  -5   8    0.66    0.30
   7  -5   8    0.28    0.27
   7  -5   8    1.35    0.36
  -7  -5  -8    0.24    0.49
  -7   5  -8   -0.12    0.38
  -7   5  -8    0.77    0.49
  -7   5  -8   -0.19    0.49
   9  -5   8    0.53    0.47
  -9  -5  -8    0.26    0.56
  -9   5  -8    0.72    0.51
  -9   5  -8    1.31    0.72
  -9   5  -8    0.94    0.56
   8  -6  -8   -0.04    0.34
  -8  -6   8    0.28    0.42
  -8  -6   8    0.09    0.41
  -8  -6   8    0.32    0.54
   8  -6  -8    0.27    0.39
   8   6  -8    0.48    0.68
  -8   6   8    1.63    0.67
   6  -6  -8   44.78    3.73
  -6  -6   8   47.39    3.47
   6  -6  -8   49.18    3.40
  -6  -6   8   47.15    3.53
   6  -6  -8   44.02    3.28
  -6  -6   8   41.67    3.54
  -6   6   8   49.26    3.62
   6   6  -8   45.67    3.64
   6   6  -8   38.45    3.75
   4  -6  -8   -0.13    0.19
  -4  -6   8    0.40    0.34
  -4  -6   8    0.11    0.32
  -4  -6   8   -0.46    0.37
   4  -6  -8    0.75    0.50
   4   6  -8   -0.20    0.47
   4   6  -8   -0.81    0.41
  -2  -6   8   85.37    5.89
   2  -6  -8   71.90    6.12
  -2  -6   8   85.79    5.73
   2   6  -8   79.29    6.12
   2   6  -8   82.41    5.87
   0  -6   8   10.57    1.00
   0  -6  -8    9.61    1.16
   0  -6   8    7.59    0.93
   0   6  -8    9.05    1.17
   0   6  -8    9.16    1.20
  -2  -6  -8   72.91    5.43
  -2  -6  -8   68.73    5.09
   2  -6   8   69.46    5.11
   2  -6   8   73.91    4.96
  -2  -6  -8   74.14    5.44
  -2   6  -8   70.58    5.33
  -2   6  -8   68.13    5.10
   4  -6   8    0.03    0.19
   4  -6   8    0.44    0.24
  -4  -6  -8    0.31    0.35
  -4  -6  -8    0.21    0.37
  -4  -6  -8    0.31    0.55
  -4   6  -8    0.90    0.48
  -4   6  -8    0.07    0.38
   6  -6   8   35.81    2.81
   6  -6   8   34.95    2.72
  -6  -6  -8   35.24    3.03
  -6  -6  -8   39.95    3.13
  -6   6  -8   38.00    3.08
  -6   6  -8   37.43    2.95
  -6   6  -8   43.69    3.23
  -8  -6  -8    0.24    0.58
   8  -6   8    0.16    0.36
   8  -6   8    0.17    0.33
  -8   6  -8    0.83    0.68
  -8   6  -8   -0.32    0.46
  -8   6  -8    0.03    0.48
  -8   6  -8    0.74    0.51
   7  -7  -8    2.53    0.50
  -7  -7   8    1.47    0.50
  -7  -7   8    2.29    0.72
  -7  -7   8    1.63    0.50
   7  -7  -8    2.48    0.76
   7  -7  -8    2.42    0.49
   7   7  -8    2.18    0.84
   5  -7  -8   -0.10    0.51
  -5  -7   8   -0.34    0.29
  -5  -7   8   -0.10    0.31
   5   7  -8   -0.86    0.50
   5   7  -8   -0.62    0.52
   3  -7  -8   -0.51    0.40
  -3  -7   8    0.18    0.28
  -3  -7   8    0.14    0.30
  -3  -7   8    0.47    0.47
   3   7  -8    0.02    0.48
   3   7  -8    0.66    0.54
  -1  -7   8    0.78    0.30
  -1  -7   8   -0.23    0.23
   1  -7  -8   -0.14    0.40
   1   7  -8    0.52    0.45
   1   7  -8    1.00    0.55
  -1  -7  -8    0.05    0.39
   1  -7   8    0.22    0.22
  -1  -7  -8   -0.82    0.40
   1  -7   8   -0.06    0.21
  -1   7  -8    0.47    0.42
  -1   7  -8    0.42    0.45
   3  -7   8    7.82    0.84
   3  -7   8    6.90    0.79
  -3  -7  -8    8.90    1.06
  -3  -7  -8    7.67    1.21
  -3  -7  -8    8.81    1.09
  -3   7  -8    7.84    1.12
  -3   7  -8   10.66    1.21
  -5  -7  -8    1.67    0.70
   5  -7   8    0.39    0.27
   5  -7   8    0.72    0.29
  -5  -7  -8   -0.05    0.37
  -5  -7  -8    0.62    0.51
  -5   7  -8    0.48    0.47
  -5   7  -8    0.39    0.48
   7  -7   8    0.65    0.36
  -7  -7  -8    1.17    0.67
   7  -7   8    1.02    0.40
   7  -7   8    0.75    0.35
  -7   7  -8    0.97    0.56
  -7   7  -8    0.25    0.54
  -7   7  -8    0.78    0.67
  -8  -8   8    3.79    0.64
  -8  -8   8    3.36    0.67
   8  -8  -8    3.69    0.91
  -8  -8   8    4.18    0.95
   8  -8  -8    3.68    0.64
   8   8  -8    6.00    1.30
  -6  -8   8   -0.21    0.30
   6  -8  -8   -0.42    0.54
  -6  -8   8   -0.33    0.30
   6   8  -8   -0.84    0.59
  -4  -8   8   36.29    3.82
  -4  -8   8   45.16    3.13
  -4  -8   8   43.94    3.16
   4  -8  -8   40.55    3.42
   4   8  -8   41.60    3.59
   2  -8  -8    6.57    1.02
  -2  -8   8    6.63    1.13
  -2  -8   8    6.83    0.80
  -2  -8   8    7.39    0.83
   2   8  -8    7.28    1.24
   2   8  -8    6.94    1.05
   0  -8  -8   56.32    4.79
   0  -8   8   62.90    4.39
   0  -8   8   64.42    4.52
   0   8  -8   65.64    4.66
   0   8  -8   60.60    4.84
   2  -8   8    0.27    0.24
  -2  -8  -8    0.88    0.61
  -2  -8  -8    0.21    0.39
   2  -8   8    0.35    0.24
  -2   8  -8    0.30    0.48
  -2   8  -8    0.58    0.45
  -4  -8  -8   15.69    1.67
  -4  -8  -8   15.04    1.84
   4  -8   8   13.37    1.25
  -4  -8  -8   14.40    1.56
   4  -8   8   14.04    1.25
  -4   8  -8   16.62    1.77
  -4   8  -8   17.49    1.74
   6  -8   8    0.06    0.33
  -6  -8  -8    0.83    0.47
   6  -8   8    0.40    0.31
   6  -8   8    0.56    0.32
  -6  -8  -8   -0.01    0.55
  -6   8  -8    0.87    0.58
  -6   8  -8    0.34    0.55
   8  -8   8   11.05    1.40
   8  -8   8   11.63    1.36
  -8  -8  -8   15.10    1.84
  -8   8  -8   13.93    1.67
  -8   8  -8   12.84    1.57
  -8   8  -8   13.31    1.81
  -7  -9   8    0.75    0.37
  -5  -9   8    0.33    0.29
  -5  -9   8    0.35    0.33
   5  -9  -8    0.31    0.63
   5   9  -8    1.07    0.78
  -3  -9   8    0.25    0.29
  -3  -9   8    0.55    0.30
  -3  -9   8    1.08    0.66
   3  -9  -8    0.31    0.55
   3   9  -8    0.66    0.65
  -1  -9   8    0.15    0.55
   1  -9  -8    0.13    0.46
  -1  -9   8   -0.40    0.19
  -1  -9   8   -0.33    0.22
   1   9  -8    1.27    0.58
   1   9  -8    0.09    0.55
  -1  -9  -8    0.84    0.62
   1  -9   8    0.42    0.26
  -1  -9  -8    0.25    0.40
   1  -9   8    0.19    0.26
  -1   9  -8    0.37    0.53
  -1   9  -8    0.25    0.48
   3  -9   8   -0.20    0.22
  -3  -9  -8    0.34    0.66
   3  -9   8   -0.19    0.21
  -3  -9  -8   -0.09    0.38
  -3   9  -8    0.92    0.60
  -3   9  -8    1.00    0.53
  -5  -9  -8    4.01    1.07
   5  -9   8    2.97    0.59
  -5  -9  -8    3.29    0.85
   5  -9   8    3.96    0.62
  -5  -9  -8    4.03    0.76
   5  -9   8    3.26    0.59
  -5   9  -8    3.96    0.95
  -5   9  -8    3.46    0.84
   7  -9   8    0.13    0.38
  -7   9  -8    0.66    0.63
  -4 -10   8    0.82    0.30
  -4 -10   8    0.85    0.66
  -4 -10   8    1.44    0.38
   4  10  -8    0.73    0.79
  -2 -10   8   16.24    1.34
  -2 -10   8   15.05    2.08
   2 -10  -8   14.70    1.68
  -2 -10   8   16.83    1.36
   2  10  -8   16.95    1.95
   0 -10  -8    0.02    0.43
   0 -10   8    0.55    0.67
   0 -10   8    0.23    0.25
   0 -10   8    0.45    0.28
   0 -10  -8    0.10    0.62
   0  10  -8    0.70    0.62
   2 -10   8   24.23    1.87
  -2 -10  -8   23.92    2.10
  -2 -10  -8   28.54    2.66
   2 -10   8   21.80    1.87
  -2  10  -8   24.10    2.36
  -2  10  -8   21.60    2.41
  -4 -10  -8    0.18    0.42
  -4 -10  -8   -0.30    0.68
   4 -10   8    0.70    0.37
   4 -10   8    0.46    0.32
   4 -10   8    0.46    0.37
  -4  10  -8    0.21    0.61
  -4  10  -8   -0.38    0.55
  -3 -11   8    0.17    0.25
  -3 -11   8    0.73    0.69
  -3 -11   8    0.20    0.25
   3  11  -8    1.00    0.75
   1 -11  -8   -0.23    0.74
  -1 -11   8    0.82    0.32
  -1 -11   8    0.98    0.78
  -1 -11   8    0.20    0.26
   1  11  -8    0.75    0.70
   1 -11   8    0.53    0.76
  -1 -11  -8   -0.57    0.66
   1 -11   8    0.09    0.27
   1 -11   8   -0.04    0.26
  -1 -11  -8   -0.75    0.40
  -1  11  -8   -0.56    0.64
   3 -11   8   -0.33    0.28
   3 -11   8    0.03    0.34
   3 -11   8    0.24    0.34
  -3 -11  -8    0.15    0.44
  -3 -11  -8    0.25    0.77
  -3  11  -8    0.84    0.73
  10   0  -9   -0.36    0.50
  10   0  -9    0.10    0.49
 -10   0   9   -0.05    0.45
 -10   0   9   -0.44    0.45
   8   0  -9    0.27    0.41
  -8   0   9    0.00    0.38
  -8   0   9    0.42    0.46
   8   0  -9    0.13    0.46
   6   0  -9   -0.29    0.34
   6   0  -9   -0.10    0.36
  -6   0   9   -0.22    0.24
  -6   0   9    0.31    0.33
  -6   0   9    0.14    0.35
  -4   0   9   -0.16    0.26
   4   0  -9    0.23    0.36
  -4   0   9    0.22    0.29
   4   0  -9   -0.30    0.24
  -4   0   9   -0.18    0.16
  -2   0   9    0.35    0.28
   2   0  -9    0.00    0.27
  -2   0   9    0.34    0.27
   2   0  -9    0.13    0.26
   0   0  -9    0.59    0.24
   0   0  -9    0.07    0.22
   0   0  -9    0.38    0.14
   0   0   9    0.41    0.27
   0   0  -9    0.07    0.32
   0   0  -9    0.53    0.23
   0   0   9    0.58    0.28
   0   0  -9    0.54    0.24
  -2   0  -9   -0.24    0.28
  -2   0  -9    0.38    0.18
   2   0   9   -0.05    0.20
  -2   0  -9   -0.01    0.18
  -2   0  -9    0.18    0.15
  -2   0  -9   -0.23    0.16
  -2   0  -9    0.12    0.16
  -2   0  -9    0.25    0.30
   2   0   9    0.27    0.24
  -4   0  -9   -0.09    0.28
   4   0   9   -0.10    0.22
  -4   0  -9   -0.18    0.15
  -4   0  -9    0.07    0.15
  -4   0  -9    0.05    0.24
  -6   0  -9   -0.08    0.29
  -6   0  -9    0.02    0.18
  -6   0  -9   -0.16    0.25
  -6   0  -9   -0.20    0.16
  -8   0  -9    0.32    0.44
 -10   0  -9   -0.13    0.50
   9  -1  -9    0.37    0.46
  -9  -1   9    1.04    0.52
  -9  -1   9    0.68    0.49
   9  -1  -9    0.94    0.48
   9   1  -9    0.85    0.57
   9   1  -9    1.26    0.64
  -9   1   9    1.14    0.59
  -9   1   9    0.96    0.54
  -7  -1   9    0.37    0.38
   7  -1  -9   -0.09    0.33
   7  -1  -9    0.80    0.45
  -7  -1   9   -0.40    0.32
  -7  -1   9   -0.20    0.33
  -7   1   9    0.02    0.38
   7   1  -9    0.39    0.42
  -7   1   9    0.52    0.38
   7   1  -9    0.43    0.50
  -5  -1   9    1.24    0.44
   5  -1  -9    1.60    0.49
  -5  -1   9    1.33    0.44
   5  -1  -9    0.64    0.37
  -5  -1   9    0.63    0.29
   5   1  -9    1.75    0.56
  -5   1   9    1.43    0.44
  -5   1   9    0.86    0.35
   5   1  -9    1.27    0.50
  -3  -1   9    7.34    0.89
   3  -1  -9    5.99    0.79
  -3  -1   9    7.41    0.90
   3  -1  -9    7.61    0.88
   3   1  -9    9.36    1.06
   3   1  -9    6.75    0.91
  -3   1   9    6.01    0.82
  -3   1   9    7.85    0.85
  -1  -1   9   11.64    1.15
   1  -1  -9   10.86    1.25
  -1  -1   9   10.26    1.06
   1  -1  -9    9.78    0.90
   1  -1  -9   12.01    0.91
   1  -1  -9   10.84    0.92
   1  -1  -9   10.81    0.92
   1   1  -9   10.13    1.06
   1   1  -9    9.88    1.20
  -1   1   9   11.64    1.06
   1   1  -9    9.30    1.06
  -1   1   9   11.42    1.07
  -1  -1  -9    0.74    0.39
  -1  -1  -9    0.09    0.11
   1  -1   9    0.50    0.27
   1  -1   9    0.31    0.27
  -1  -1  -9    0.32    0.17
  -1  -1  -9    1.00    0.39
  -1   1  -9    0.62    0.39
  -1   1  -9    0.60    0.22
   1   1   9    0.18    0.25
  -1   1  -9    0.28    0.25
  -1   1  -9    0.41    0.32
  -1   1  -9    0.02    0.22
  -3  -1  -9    4.09    0.74
   3  -1   9    5.95    0.65
   3  -1   9    4.28    0.58
  -3  -1  -9    3.92    0.57
  -3  -1  -9    4.41    0.73
  -3   1  -9    5.43    0.73
   3   1   9    5.63    0.60
  -3   1  -9    5.09    0.57
  -3   1  -9    5.42    0.60
  -3   1  -9    5.26    0.58
  -3   1  -9    4.38    0.60
   5  -1   9    0.94    0.28
  -5  -1  -9    0.86    0.38
  -5  -1  -9    0.08    0.28
  -5   1  -9    0.18    0.23
  -5   1  -9    0.50    0.32
  -5   1  -9    0.49    0.33
  -5   1  -9    0.80    0.28
  -7  -1  -9    1.02    0.42
  -7  -1  -9    0.98    0.44
   7  -1   9    0.57    0.27
  -7   1  -9    1.12    0.31
  -7   1  -9    0.87    0.31
  -7   1  -9    1.22    0.50
  -9  -1  -9    0.18    0.49
  -9   1  -9    0.26    0.30
  -9   1  -9    0.10    0.49
 -10  -2   9    0.39    0.53
 -10  -2   9    0.38    0.50
  10  -2  -9    0.05    0.48
  10  -2  -9    0.51    0.45
  10   2  -9   -0.47    0.55
 -10   2   9    0.27    0.59
  10   2  -9   -0.35    0.56
 -10   2   9    0.03    0.53
  -8  -2   9    1.65    0.57
   8  -2  -9    0.76    0.47
  -8  -2   9    2.10    0.55
  -8  -2   9    2.72    0.66
   8  -2  -9    0.72    0.44
   8   2  -9    1.53    0.62
  -8   2   9    1.53    0.56
  -8   2   9    1.13    0.57
   8   2  -9    1.05    0.59
  -6  -2   9    0.62    0.42
  -6  -2   9    0.94    0.48
   6  -2  -9    0.45    0.33
   6  -2  -9    0.62    0.41
  -6  -2   9    0.69    0.35
   6   2  -9    0.32    0.45
  -6   2   9    1.79    0.52
  -6   2   9    0.23    0.37
   6   2  -9    0.42    0.50
   4  -2  -9    3.02    0.54
   4  -2  -9    2.65    0.51
  -4  -2   9    3.11    0.48
  -4  -2   9    4.08    0.67
  -4  -2   9    3.83    0.64
   4   2  -9    3.02    0.64
   4   2  -9    2.05    0.61
  -4   2   9    3.66    0.59
  -4   2   9    3.27    0.58
   2  -2  -9    0.06    0.38
   2  -2  -9    0.60    0.24
  -2  -2   9    0.42    0.33
   2  -2  -9    0.19    0.18
   2  -2  -9    0.44    0.22
   2  -2  -9    0.05    0.17
  -2  -2   9    0.24    0.31
   2   2  -9    0.81    0.38
  -2   2   9    0.03    0.24
  -2   2   9    0.47    0.29
   2   2  -9    0.16    0.34
   0  -2  -9    1.98    0.54
   0  -2   9    2.54    0.47
   0  -2   9    1.75    0.41
   0   2  -9    1.62    0.36
   0   2  -9    2.45    0.55
   0   2  -9    1.50    0.40
   0   2   9    2.43    0.40
   0   2  -9    2.16    0.47
   2  -2   9    0.57    0.28
  -2  -2  -9    0.30    0.24
  -2  -2  -9    1.32    0.47
   2  -2   9    0.49    0.25
  -2  -2  -9    0.43    0.41
  -2   2  -9    0.74    0.32
  -2   2  -9    0.84    0.36
  -2   2  -9    0.92    0.33
  -2   2  -9    1.44    0.35
   2   2   9    0.56    0.27
  -4  -2  -9    6.59    0.89
   4  -2   9    6.12    0.72
  -4  -2  -9    8.88    0.86
  -4  -2  -9    6.74    0.96
   4  -2   9    6.54    0.71
  -4   2  -9    5.72    0.73
  -4   2  -9    4.81    0.77
  -4   2  -9    7.04    0.78
  -4   2  -9    7.10    0.80
  -6  -2  -9    3.12    0.62
   6  -2   9    3.30    0.47
  -6  -2  -9    1.67    0.50
  -6   2  -9    1.48    0.45
  -6   2  -9    2.46    0.49
  -6   2  -9    2.76    0.48
  -6   2  -9    2.63    0.60
   8  -2   9    0.21    0.26
  -8  -2  -9    0.28    0.45
  -8   2  -9    0.23    0.33
  -8   2  -9    0.21    0.35
  -8   2  -9    0.09    0.46
 -10  -2  -9    0.49    0.60
 -10   2  -9    0.50    0.60
 -10   2  -9    0.19    0.40
 -10   2  -9    0.05    0.37
   9  -3  -9    0.77    0.50
  -9  -3   9    1.74    0.57
  -9  -3   9    1.27    0.59
   9  -3  -9    1.13    0.50
  -9  -3   9    2.05    0.61
  -9   3   9    1.14    0.63
   9   3  -9    0.19    0.65
   9   3  -9    1.70    0.75
  -9   3   9    1.75    0.67
  -7  -3   9    4.25    0.73
  -7  -3   9    4.50    0.81
   7  -3  -9    2.95    0.60
   7  -3  -9    1.88    0.59
  -7  -3   9    3.88    0.72
   7   3  -9    6.73    1.06
  -7   3   9    3.20    0.72
  -7   3   9    6.66    0.91
   7   3  -9    3.86    0.92
  -5  -3   9    0.69    0.39
  -5  -3   9    1.92    0.53
   5  -3  -9    1.29    0.39
   5  -3  -9    0.62    0.34
  -5  -3   9    1.32    0.39
   5   3  -9    0.16    0.43
  -5   3   9    2.42    0.55
   5   3  -9    1.68    0.60
   3  -3  -9    2.18    0.36
  -3  -3   9    1.76    0.47
   3  -3  -9    1.56    0.59
   3  -3  -9    1.95    0.32
  -3  -3   9    2.59    0.55
   3  -3  -9    2.12    0.38
  -3   3   9    1.34    0.41
   3   3  -9    1.99    0.60
   3   3  -9    1.73    0.55
   1  -3  -9    0.58    0.41
  -1  -3   9    0.68    0.33
  -1  -3   9    0.32    0.32
   1   3  -9    0.60    0.40
   1   3  -9    0.67    0.41
   1   3  -9    0.56    0.37
  -1   3   9    0.31    0.24
  -1  -3  -9    6.40    0.93
  -1  -3  -9    4.85    0.85
   1  -3   9    6.85    0.78
  -1  -3  -9    6.81    0.62
   1  -3   9    6.56    0.76
  -1   3  -9    6.63    0.84
  -1   3  -9    6.70    0.83
  -1   3  -9    5.94    0.79
  -3  -3  -9    0.12    0.25
   3  -3   9    0.13    0.22
   3  -3   9    0.45    0.25
  -3  -3  -9   -0.14    0.33
  -3  -3  -9   -0.22    0.37
  -3   3  -9    0.16    0.28
  -3   3  -9    0.12    0.26
  -3   3  -9    0.80    0.37
   5  -3   9    2.10    0.38
  -5  -3  -9    1.78    0.54
   5  -3   9    2.36    0.41
  -5  -3  -9    3.13    0.59
  -5   3  -9    2.30    0.52
  -5   3  -9    1.70    0.44
  -5   3  -9    3.40    0.66
  -5   3  -9    1.44    0.36
  -7  -3  -9    0.87    0.45
   7  -3   9    0.73    0.29
  -7  -3  -9    0.33    0.42
  -7   3  -9    0.53    0.47
  -7   3  -9    0.28    0.34
  -7   3  -9    0.12    0.38
  -9  -3  -9    0.41    0.51
   9  -3   9    1.26    0.45
  -9   3  -9    0.49    0.43
  -9   3  -9    0.09    0.55
  -9   3  -9   -0.15    0.43
 -10  -4   9    0.25    0.58
 -10  -4   9    1.13    0.59
 -10  -4   9    0.22    0.49
  10  -4  -9    0.72    0.50
  10  -4  -9    0.28    0.48
 -10   4   9    0.87    0.69
  10   4  -9   -1.57    0.62
  10   4  -9    0.31    0.73
  -8  -4   9    0.10    0.42
  -8  -4   9    0.70    0.49
  -8  -4   9   -0.43    0.42
   8  -4  -9    0.37    0.41
   8  -4  -9    0.20    0.35
   8   4  -9    0.67    0.67
  -8   4   9    1.40    0.64
   8   4  -9    0.29    0.59
   6  -4  -9    7.09    0.89
  -6  -4   9    8.90    1.07
  -6  -4   9    9.17    1.07
   6  -4  -9    7.02    0.87
  -6  -4   9    6.88    0.98
   6   4  -9    8.49    1.32
  -6   4   9    7.30    1.07
   6   4  -9    6.56    1.08
   4  -4  -9    0.46    0.27
   4  -4  -9    0.02    0.24
   4  -4  -9    0.38    0.48
  -4  -4   9   -0.21    0.32
  -4  -4   9    0.23    0.35
   4   4  -9    0.27    0.42
  -4   4   9   -0.08    0.31
   4   4  -9    0.00    0.39
  -2  -4   9    8.67    1.01
   2  -4  -9    8.29    1.15
  -2  -4   9   10.80    1.10
   2   4  -9    8.36    1.17
  -2   4   9    7.47    0.89
   2   4  -9    9.05    1.14
   0  -4   9   13.83    1.28
   0  -4   9   15.12    1.35
   0  -4  -9   15.37    1.64
   0   4  -9   15.99    1.40
   0   4  -9   14.97    1.58
   0   4  -9   15.36    1.39
  -2  -4  -9   -0.02    0.22
   2  -4   9    0.03    0.23
   2  -4   9    0.51    0.28
  -2  -4  -9    0.29    0.41
  -2  -4  -9    0.07    0.41
  -2   4  -9    0.50    0.32
  -2   4  -9    0.04    0.31
  -2   4  -9    1.02    0.31
   4  -4   9    0.20    0.21
  -4  -4  -9    0.28    0.32
  -4  -4  -9   -0.34    0.42
   4  -4   9    0.00    0.20
  -4  -4  -9    0.21    0.33
  -4   4  -9   -0.10    0.20
  -4   4  -9   -0.23    0.28
  -4   4  -9   -0.19    0.34
  -6  -4  -9    3.08    0.67
   6  -4   9    3.89    0.53
   6  -4   9    3.53    0.51
  -6  -4  -9    4.14    0.74
  -6   4  -9    3.55    0.78
  -6   4  -9    2.44    0.57
  -6   4  -9    3.96    0.72
  -8  -4  -9    0.44    0.51
   8  -4   9   -0.04    0.27
  -8   4  -9    0.49    0.48
  -8   4  -9    0.67    0.44
  -8   4  -9    0.49    0.43
 -10  -4  -9    0.04    0.56
  10  -4   9    0.30    0.46
 -10   4  -9    0.10    0.66
 -10   4  -9   -0.52    0.43
 -10   4  -9    0.63    0.56
   9  -5  -9    0.22    0.41
   9  -5  -9    0.34    0.44
  -9  -5   9    0.07    0.43
  -9  -5   9    0.31    0.57
  -9  -5   9   -0.57    0.41
   9   5  -9   -0.47    0.68
  -9   5   9   -0.32    0.59
   9   5  -9   -0.52    0.59
  -7  -5   9    0.36    0.45
   7  -5  -9    0.71    0.37
   7  -5  -9    0.30    0.38
  -7  -5   9    0.64    0.50
  -7  -5   9    0.21    0.47
   7   5  -9   -0.08    0.61
   7   5  -9    2.80    0.83
  -7   5   9    0.62    0.54
  -5  -5   9    3.90    0.70
  -5  -5   9    3.87    0.74
   5  -5  -9    4.58    0.55
  -5  -5   9    4.04    0.70
   5  -5  -9    3.78    0.54
   5  -5  -9    3.73    0.84
   5   5  -9    4.15    0.87
   5   5  -9    3.07    0.84
  -5   5   9    3.24    0.69
  -3  -5   9    1.25    0.42
   3  -5  -9    1.10    0.57
  -3  -5   9    1.13    0.44
   3   5  -9    1.02    0.58
   3   5  -9    0.81    0.48
  -1  -5   9   -0.01    0.27
  -1  -5   9    0.32    0.30
   1  -5  -9    0.24    0.44
   1   5  -9    0.17    0.37
   1   5  -9   -0.64    0.34
  -1  -5  -9    5.07    0.84
   1  -5   9    2.98    0.56
   1  -5   9    4.13    0.59
  -1  -5  -9    4.38    0.56
  -1  -5  -9    3.71    0.82
  -1   5  -9    4.79    0.81
  -1   5  -9    5.55    0.64
  -1   5  -9    4.03    0.73
   3  -5   9    0.01    0.19
   3  -5   9   -0.03    0.21
  -3  -5  -9   -0.04    0.34
  -3  -5  -9   -0.22    0.46
  -3  -5  -9    0.06    0.30
  -3   5  -9   -0.06    0.38
  -3   5  -9    0.21    0.36
  -5  -5  -9    1.23    0.49
  -5  -5  -9    0.52    0.47
   5  -5   9    0.30    0.22
   5  -5   9    0.84    0.28
  -5  -5  -9    0.41    0.54
  -5   5  -9   -0.20    0.39
  -5   5  -9    0.03    0.38
  -5   5  -9    0.22    0.41
  -7  -5  -9    0.50    0.49
   7  -5   9   -0.33    0.24
   7  -5   9    0.04    0.29
   7  -5   9   -0.25    0.22
  -7  -5  -9    0.22    0.43
  -7   5  -9    0.08    0.52
  -7   5  -9   -0.09    0.36
  -7   5  -9    0.25    0.43
   9  -5   9   -0.56    0.36
  -9  -5  -9   -0.07    0.53
  -9   5  -9   -0.40    0.50
  -9   5  -9   -0.03    0.47
  -9   5  -9    0.63    0.70
   8  -6  -9    0.83    0.45
   8  -6  -9    1.30    0.45
  -8  -6   9    0.66    0.53
  -8  -6   9    0.07    0.45
  -8  -6   9    0.59    0.55
   8   6  -9    0.44    0.71
  -8   6   9    1.34    0.70
  -6  -6   9    1.33    0.52
   6  -6  -9    1.32    0.38
   6  -6  -9    1.69    0.66
  -6  -6   9    1.18    0.49
  -6  -6   9    1.72    0.60
   6  -6  -9    1.98    0.43
   6   6  -9    2.33    0.83
   6   6  -9    2.51    0.82
  -4  -6   9    2.37    0.59
  -4  -6   9    2.28    0.58
   4  -6  -9    3.84    0.85
  -4  -6   9    3.19    0.68
   4   6  -9    4.24    0.93
   4   6  -9    5.35    0.95
  -2  -6   9    7.86    0.97
  -2  -6   9    7.66    0.95
   2  -6  -9    7.46    1.10
   2   6  -9    7.35    1.17
   2   6  -9   11.08    1.27
   0  -6  -9    6.15    1.01
   0  -6   9    7.81    0.89
   0  -6   9    8.51    0.91
   0   6  -9    7.89    1.09
   0   6  -9    8.12    1.14
  -2  -6  -9    0.81    0.55
  -2  -6  -9    0.00    0.29
   2  -6   9    1.03    0.33
   2  -6   9    0.87    0.29
  -2  -6  -9    1.58    0.51
  -2   6  -9    1.10    0.52
  -2   6  -9    0.42    0.40
  -4  -6  -9    2.52    0.60
   4  -6   9    1.92    0.41
  -4  -6  -9    1.99    0.73
   4  -6   9    1.70    0.39
  -4  -6  -9    2.58    0.65
  -4   6  -9    2.59    0.60
  -4   6  -9    0.92    0.55
   6  -6   9    0.14    0.25
  -6  -6  -9    0.36    0.42
   6  -6   9    0.52    0.28
  -6  -6  -9    0.90    0.56
  -6   6  -9    0.34    0.47
  -6   6  -9    0.42    0.52
  -6   6  -9    0.56    0.48
  -8  -6  -9    1.22    0.70
   8  -6   9    0.35    0.38
   8  -6   9    1.60    0.49
  -8   6  -9    0.94    0.71
  -8   6  -9    1.86    0.64
  -8   6  -9    1.24    0.61
  -8   6  -9    1.02    0.59
   7  -7  -9    0.02    0.31
   7  -7  -9   -0.27    0.56
  -7  -7   9    0.29    0.53
  -7  -7   9    0.35    0.44
  -7  -7   9   -0.25    0.35
   7   7  -9   -0.91    0.59
  -5  -7   9    0.61    0.41
   5  -7  -9    0.36    0.59
  -5  -7   9    0.96    0.44
   5   7  -9    1.58    0.69
   5   7  -9   -0.67    0.56
  -3  -7   9    0.26    0.35
  -3  -7   9   -0.04    0.45
  -3  -7   9    0.07    0.32
   3  -7  -9    0.38    0.52
   3   7  -9    0.40    0.55
   3   7  -9    0.11    0.49
   1  -7  -9    1.20    0.60
  -1  -7   9    2.90    0.53
  -1  -7   9    2.35    0.48
   1   7  -9    2.69    0.68
   1   7  -9    2.36    0.74
  -1  -7  -9    2.76    0.67
   1  -7   9    2.17    0.44
   1  -7   9    2.15    0.44
  -1  -7  -9    1.27    0.64
  -1   7  -9    3.54    0.74
  -1   7  -9    1.35    0.58
  -3  -7  -9    0.67    0.61
   3  -7   9    0.47    0.27
   3  -7   9   -0.23    0.21
  -3  -7  -9   -0.21    0.36
  -3  -7  -9   -0.19    0.36
  -3   7  -9   -0.38    0.40
  -3   7  -9    0.13    0.50
   5  -7   9    0.11    0.25
   5  -7   9    0.11    0.28
  -5  -7  -9    0.46    0.50
  -5  -7  -9   -0.20    0.59
  -5  -7  -9   -0.48    0.37
  -5   7  -9   -0.06    0.44
  -5   7  -9   -0.87    0.41
   7  -7   9   -0.23    0.31
  -7  -7  -9    0.49    0.61
   7  -7   9    0.91    0.42
   7  -7   9    0.34    0.34
  -7   7  -9   -0.18    0.50
  -7   7  -9   -0.24    0.47
  -7   7  -9    0.10    0.57
  -6  -8   9    1.45    0.52
   6  -8  -9    1.87    0.77
  -6  -8   9    2.41    0.53
   6   8  -9    2.43    0.93
  -4  -8   9   -0.08    0.33
  -4  -8   9   -0.09    0.50
   4  -8  -9   -0.21    0.52
  -4  -8   9    0.11    0.34
   4   8  -9    0.12    0.60
   4   8  -9    1.15    0.67
  -2  -8   9    0.98    0.60
   2  -8  -9    2.40    0.68
  -2  -8   9    0.63    0.36
  -2  -8   9    1.70    0.45
   2   8  -9    1.45    0.69
   2   8  -9    1.22    0.61
   0  -8  -9    4.59    0.85
   0  -8  -9    3.83    0.94
   0  -8   9    4.68    0.64
   0  -8   9    3.93    0.59
   0   8  -9    4.67    0.96
   0   8  -9    4.58    0.93
   2  -8   9    4.61    0.63
  -2  -8  -9    3.83    0.79
  -2  -8  -9    4.04    0.96
   2  -8   9    4.95    0.64
  -2   8  -9    5.43    0.93
  -2   8  -9    5.93    1.03
   4  -8   9    1.85    0.41
   4  -8   9    1.86    0.41
  -4  -8  -9    2.32    0.64
  -4  -8  -9    0.70    0.50
  -4  -8  -9    3.76    0.99
  -4   8  -9    1.83    0.71
  -4   8  -9    1.88    0.63
   6  -8   9    3.72    0.62
   6  -8   9    3.54    0.62
  -6  -8  -9    4.38    0.93
   6  -8   9    2.90    0.56
  -6  -8  -9    3.39    0.76
  -6   8  -9    3.99    0.85
  -6   8  -9    3.66    0.91
  -5  -9   9    2.15    0.48
   5  -9  -9    1.50    0.72
  -5  -9   9    2.07    0.51
   5   9  -9    1.23    0.84
  -3  -9   9    0.61    0.56
  -3  -9   9    0.32    0.31
   3  -9  -9    0.17    0.56
  -3  -9   9   -0.04    0.28
   3   9  -9    0.69    0.69
   1  -9  -9    0.90    0.56
  -1  -9   9    0.58    0.32
  -1  -9   9    0.96    0.35
  -1  -9   9    1.45    0.73
   1   9  -9    0.56    0.57
   1   9  -9    2.23    0.78
   1  -9   9    2.81    0.49
   1  -9   9    1.37    0.38
  -1  -9  -9    1.83    0.59
  -1  -9  -9    2.87    0.87
  -1   9  -9    3.05    0.79
  -1   9  -9    1.70    0.71
  -3  -9  -9    0.05    0.41
   3  -9   9    0.09    0.25
   3  -9   9   -0.18    0.24
  -3  -9  -9   -0.02    0.66
  -3   9  -9    0.13    0.56
  -3   9  -9   -0.02    0.52
  -5  -9  -9    1.05    0.64
  -5  -9  -9    0.77    0.51
   5  -9   9    0.22    0.35
   5  -9   9    0.93    0.37
  -5  -9  -9    0.34    0.76
   5  -9   9    0.40    0.34
  -5   9  -9    0.53    0.62
  -5   9  -9    0.17    0.56
  -4 -10   9    4.36    0.66
  -4 -10   9    4.98    0.63
   4 -10  -9    5.55    1.06
   4  10  -9    2.99    1.05
  -2 -10   9    0.97    0.37
  -2 -10   9    1.88    0.40
  -2 -10   9    0.18    0.66
   2 -10  -9    1.16    0.67
   2  10  -9    0.67    0.74
   0 -10   9    0.54    0.66
   0 -10  -9    0.42    0.68
   0 -10   9    0.43    0.30
   0 -10  -9    0.19    0.48
   0 -10   9    0.33    0.30
   0  10  -9    0.61    0.67
   2 -10   9    2.79    0.51
  -2 -10  -9    3.23    0.72
   2 -10   9    2.17    0.47
  -2 -10  -9    3.05    0.97
  -2  10  -9    3.49    0.89
  -2  10  -9    2.03    0.80
  -4 -10  -9    5.85    1.21
   4 -10   9    4.32    0.66
   4 -10   9    2.95    0.60
   4 -10   9    3.65    0.61
  -4 -10  -9    2.95    0.71
  -4  10  -9    4.60    1.08
  -4  10  -9    4.56    1.00
  -1 -11   9    0.16    0.70
  -1 -11   9    0.09    0.29
  -1 -11   9   -0.08    0.28
   1 -11  -9    0.34    0.78
   1 -11  -9    0.48    0.55
   1  11  -9    0.87    0.75
   1 -11   9    0.83    0.82
  -1 -11  -9    1.37    0.90
   1 -11   9    0.16    0.31
   1 -11   9    0.26    0.32
  -1 -11  -9   -0.04    0.49
  -1  11  -9    0.68    0.71
  10   0 -10    2.19    0.78
 -10   0  10    4.41    0.87
  10   0 -10    3.11    0.80
 -10   0  10    3.04    0.79
   8   0 -10    0.53    0.50
   8   0 -10    0.68    0.49
  -8   0  10    0.49    0.49
  -8   0  10    1.05    0.53
   6   0 -10   36.34    2.95
   6   0 -10   35.12    3.02
  -6   0  10   40.71    2.98
  -6   0  10   39.87    3.06
  -4   0  10    0.63    0.35
   4   0 -10   -0.02    0.32
   4   0 -10    0.38    0.39
  -4   0  10    0.43    0.34
  -2   0  10   79.81    5.88
  -2   0  10   83.07    5.71
   2   0 -10   81.80    5.87
   2   0 -10   82.91    5.68
   2   0 -10   77.90    6.15
   0   0  10   75.31    5.49
   0   0 -10   75.61    5.22
   0   0 -10   72.84    5.23
   0   0  10   75.83    5.30
   0   0 -10   77.86    5.39
   0   0 -10   77.53    5.40
   0   0 -10   75.73    5.73
  -2   0 -10   88.25    6.17
  -2   0 -10   90.80    6.63
  -2   0 -10   87.29    6.01
  -2   0 -10   86.80    6.01
  -2   0 -10   84.37    6.16
  -2   0 -10   91.95    6.45
   2   0  10   92.01    6.33
   4   0  10    0.06    0.24
  -4   0 -10   -0.20    0.15
  -4   0 -10   -0.03    0.15
  -4   0 -10    0.53    0.30
  -4   0 -10    0.31    0.33
  -6   0 -10   39.43    3.16
  -6   0 -10   41.21    3.11
  -8   0 -10    0.24    0.44
 -10   0 -10    3.95    0.91
   9  -1 -10    0.58    0.48
   9  -1 -10    0.79    0.57
  -9  -1  10    0.21    0.45
  -9  -1  10    0.60    0.50
  -9   1  10    0.09    0.53
   9   1 -10    0.45    0.53
   9   1 -10    0.25    0.59
  -9   1  10    0.75    0.58
   7  -1 -10    0.59    0.47
   7  -1 -10    2.28    0.61
  -7  -1  10    1.56    0.54
  -7  -1  10    2.56    0.61
  -7   1  10    2.96    0.66
   7   1 -10    1.89    0.63
  -7   1  10    2.65    0.67
   7   1 -10    1.02    0.57
  -5  -1  10    1.38    0.49
   5  -1 -10    2.58    0.56
  -5  -1  10    2.52    0.58
   5  -1 -10    2.18    0.54
  -5   1  10    1.46    0.51
  -5   1  10    2.42    0.58
   5   1 -10    1.98    0.55
   5   1 -10    2.44    0.62
   3  -1 -10   14.48    1.21
   3  -1 -10   13.62    1.21
  -3  -1  10   14.89    1.42
  -3  -1  10   12.10    1.28
   3   1 -10   10.97    1.34
  -3   1  10   12.76    1.28
  -3   1  10   11.08    1.26
   3   1 -10   12.42    1.34
  -1  -1  10    0.90    0.36
   1  -1 -10    0.97    0.25
  -1  -1  10    0.18    0.32
   1  -1 -10   -0.10    0.38
   1  -1 -10    0.26    0.22
   1  -1 -10    0.60    0.22
   1  -1 -10    0.67    0.25
  -1   1  10    0.52    0.27
   1   1 -10    0.86    0.44
   1   1 -10    0.74    0.32
  -1   1  10    0.32    0.30
   1   1 -10    0.44    0.32
  -1  -1 -10    1.50    0.49
   1  -1  10    2.37    0.45
   1  -1  10    2.03    0.45
  -1  -1 -10    1.94    0.30
  -1  -1 -10    2.18    0.57
  -1   1 -10    1.77    0.33
  -1   1 -10    2.85    0.60
  -1   1 -10    2.06    0.40
  -1   1 -10    1.65    0.38
   1   1  10    2.41    0.44
  -1   1 -10    1.56    0.47
  -3  -1 -10    4.91    0.80
  -3  -1 -10    6.47    0.86
   3  -1  10    6.26    0.70
  -3  -1 -10    4.84    0.63
  -3   1 -10    6.10    0.81
  -3   1 -10    4.82    0.60
  -3   1 -10    4.74    0.59
  -3   1 -10    5.73    0.68
  -5  -1 -10    4.61    0.68
   5  -1  10    3.95    0.56
  -5  -1 -10    3.72    0.69
  -5   1 -10    4.79    0.55
  -5   1 -10    3.66    0.64
  -5   1 -10    3.60    0.65
  -5   1 -10    4.68    0.53
  -7  -1 -10    2.78    0.61
  -7  -1 -10    3.16    0.64
  -7   1 -10    3.00    0.67
  -7   1 -10    2.72    0.45
  -9  -1 -10    1.18    0.57
  -9   1 -10    0.71    0.56
  -9   1 -10    0.68    0.31
  10  -2 -10   -0.67    0.43
 -10  -2  10   -0.10    0.48
 -10  -2  10   -0.13    0.51
  10  -2 -10    0.55    0.52
  10   2 -10   -0.34    0.61
  10   2 -10   -0.14    0.59
 -10   2  10   -0.38    0.55
 -10   2  10   -0.48    0.53
   8  -2 -10   10.09    1.26
  -8  -2  10   12.33    1.43
   8  -2 -10    8.94    1.28
  -8  -2  10   13.86    1.46
   8   2 -10   11.69    1.60
  -8   2  10   11.86    1.43
   8   2 -10   11.83    1.51
  -8   2  10   11.78    1.40
  -6  -2  10    1.84    0.52
   6  -2 -10    1.62    0.49
   6  -2 -10    0.61    0.42
  -6  -2  10    1.24    0.52
  -6   2  10    1.40    0.50
   6   2 -10    1.09    0.56
   6   2 -10    0.63    0.46
  -6   2  10    1.51    0.51
  -4  -2  10   77.00    5.25
   4  -2 -10   69.37    5.28
   4  -2 -10   73.40    5.13
  -4  -2  10   77.64    5.43
  -4   2  10   73.19    5.35
   4   2 -10   67.82    5.45
   4   2 -10   71.96    5.29
  -2  -2  10   -0.17    0.29
  -2  -2  10    0.28    0.33
   2  -2 -10   -0.09    0.21
   2  -2 -10   -0.22    0.17
   2  -2 -10   -0.05    0.19
   2  -2 -10   -0.68    0.35
   2   2 -10    0.37    0.37
  -2   2  10   -0.20    0.25
   2   2 -10    0.50    0.37
   0  -2  10   67.10    5.06
   0  -2 -10   71.93    5.33
   0  -2  10   63.61    4.87
   0   2 -10   72.87    5.25
   0   2 -10   68.95    4.90
   0   2 -10   72.50    5.00
   0   2 -10   72.61    5.08
   0   2  10   64.92    4.97
   2  -2  10   16.67    1.50
  -2  -2 -10   17.34    1.86
  -2  -2 -10   19.40    1.76
   2  -2  10   19.52    1.59
  -2  -2 -10   18.82    1.48
  -2   2 -10   18.96    1.53
  -2   2 -10   21.02    1.69
  -2   2 -10   19.03    1.59
  -2   2 -10   18.62    1.53
  -4  -2 -10   48.54    4.05
  -4  -2 -10   51.97    3.83
  -4  -2 -10   50.17    4.04
   4  -2  10   54.18    3.84
  -4   2 -10   56.37    3.86
  -4   2 -10   51.20    3.86
  -4   2 -10   53.18    3.96
  -4   2 -10   50.19    3.72
  -6  -2 -10    0.32    0.37
  -6  -2 -10   -0.18    0.34
   6  -2  10   -0.17    0.21
  -6   2 -10    0.13    0.32
  -6   2 -10    0.03    0.29
  -6   2 -10   -0.53    0.32
  -6   2 -10   -0.04    0.27
  -8  -2 -10   25.44    2.27
  -8   2 -10   25.62    2.01
  -8   2 -10   25.66    2.06
  -8   2 -10   24.69    2.31
 -10  -2 -10   -0.17    0.53
 -10   2 -10    0.19    0.61
 -10   2 -10   -0.02    0.36
  -9  -3  10   -0.03    0.51
   9  -3 -10    0.31    0.48
   9  -3 -10    0.42    0.43
  -9  -3  10   -0.23    0.44
   9   3 -10   -0.10    0.58
   9   3 -10   -0.34    0.65
  -9   3  10    0.08    0.55
  -7  -3  10   -0.34    0.36
   7  -3 -10    0.20    0.35
   7  -3 -10   -0.02    0.36
  -7  -3  10    0.74    0.51
   7   3 -10   -0.46    0.49
  -7   3  10    0.20    0.45
   7   3 -10   -0.05    0.49
   5  -3 -10    1.56    0.42
  -5  -3  10    1.52    0.42
   5  -3 -10    1.63    0.43
  -5  -3  10    1.63    0.51
  -5  -3  10    2.46    0.62
   5   3 -10    1.20    0.57
   5   3 -10    1.61    0.61
  -5   3  10    1.14    0.51
  -3  -3  10    6.29    0.92
   3  -3 -10    7.19    1.07
  -3  -3  10    7.61    0.96
   3  -3 -10    6.97    0.73
   3  -3 -10    8.41    0.68
   3   3 -10    6.34    1.01
   3   3 -10    6.76    0.97
  -3   3  10    6.76    0.88
   1  -3 -10   10.73    1.29
  -1  -3  10   11.16    1.14
  -1  -3  10    9.17    1.11
   1   3 -10    7.55    1.09
   1   3 -10   11.00    0.95
   1   3 -10   10.15    1.22
   1   3 -10   10.97    1.21
   1  -3  10    0.30    0.28
  -1  -3 -10   -0.41    0.32
  -1  -3 -10    0.22    0.20
  -1  -3 -10    0.50    0.51
   1  -3  10    0.01    0.25
  -1   3 -10    1.16    0.40
  -1   3 -10    1.42    0.44
  -1   3 -10    0.45    0.34
  -3  -3 -10    0.15    0.28
  -3  -3 -10    0.71    0.48
   3  -3  10    0.04    0.25
   3  -3  10    0.13    0.23
  -3  -3 -10   -0.14    0.35
  -3   3 -10   -0.23    0.29
  -3   3 -10    0.57    0.37
  -3   3 -10    0.12    0.31
  -3   3 -10    0.33    0.30
   5  -3  10    1.01    0.33
  -5  -3 -10    1.21    0.46
  -5  -3 -10    1.35    0.51
  -5   3 -10    2.37    0.52
  -5   3 -10    1.34    0.41
  -5   3 -10    1.08    0.33
  -5   3 -10    1.54    0.54
  -7  -3 -10    4.49    0.80
  -7  -3 -10    4.46    0.81
   7  -3  10    4.18    0.61
  -7   3 -10    5.75    0.94
  -7   3 -10    4.19    0.69
  -7   3 -10    4.30    0.73
  -9  -3 -10   -0.02    0.50
   9  -3  10    0.12    0.37
  -9   3 -10    0.03    0.40
  -9   3 -10    0.17    0.46
  -9   3 -10    0.75    0.66
   8  -4 -10    0.30    0.43
  -8  -4  10    0.31    0.45
   8  -4 -10   -0.30    0.33
  -8  -4  10    0.42    0.49
  -8   4  10    0.59    0.58
   8   4 -10    0.63    0.61
   8   4 -10    1.85    0.72
   6  -4 -10   34.43    2.64
  -6  -4  10   35.50    2.83
   6  -4 -10   33.42    2.58
  -6  -4  10   33.07    2.73
  -6  -4  10   33.68    2.70
   6   4 -10   34.81    3.02
  -6   4  10   37.87    2.89
   6   4 -10   29.40    2.81
   4  -4 -10    0.29    0.49
  -4  -4  10   -0.70    0.30
  -4  -4  10    0.42    0.40
   4  -4 -10    0.13    0.26
   4   4 -10    1.19    0.57
   4   4 -10    0.87    0.55
  -4   4  10    0.38    0.38
  -2  -4  10   53.47    3.97
  -2  -4  10   49.86    3.82
   2  -4 -10   59.68    4.22
   2   4 -10   48.68    3.91
   2   4 -10   48.87    4.06
   0  -4 -10    3.89    0.81
   0  -4  10    4.96    0.71
   0  -4  10    3.41    0.61
   0   4 -10    3.86    0.75
   0   4 -10    3.76    0.68
   0   4 -10    5.19    0.78
  -2  -4 -10   27.81    2.55
   2  -4  10   28.87    2.23
  -2  -4 -10   26.78    2.21
   2  -4  10   31.36    2.34
  -2  -4 -10   27.86    2.54
  -2   4 -10   30.22    2.43
  -2   4 -10   33.45    2.35
   4  -4  10    1.31    0.33
  -4  -4 -10    1.21    0.46
   4  -4  10    1.30    0.37
  -4  -4 -10    2.02    0.64
  -4  -4 -10    1.18    0.50
  -4   4 -10    1.51    0.53
  -4   4 -10    0.60    0.40
  -4   4 -10    1.21    0.32
  -4   4 -10    1.13    0.42
   6  -4  10   49.52    3.62
  -6  -4 -10   45.80    3.89
  -6  -4 -10   50.24    3.78
  -6   4 -10   52.58    3.80
  -6   4 -10   49.86    3.65
  -6   4 -10   44.71    3.83
   8  -4  10   -0.15    0.28
  -8  -4 -10   -0.57    0.44
  -8   4 -10    0.60    0.57
  -8   4 -10    0.12    0.47
  -8   4 -10   -0.20    0.39
   9  -5 -10    0.02    0.45
  -9  -5  10   -0.07    0.47
   9  -5 -10   -0.26    0.41
  -9  -5  10   -0.06    0.47
   9   5 -10   -0.69    0.63
  -9   5  10   -0.34    0.63
   9   5 -10   -0.28    0.70
  -7  -5  10    1.40    0.57
   7  -5 -10    0.48    0.39
   7  -5 -10    1.18    0.45
  -7  -5  10    0.51    0.49
  -7  -5  10    0.51    0.52
   7   5 -10    1.96    0.72
   7   5 -10    3.47    0.92
  -7   5  10    2.69    0.72
   5  -5 -10   11.21    1.37
  -5  -5  10    9.04    1.12
  -5  -5  10    7.24    1.06
   5  -5 -10    8.16    0.85
   5   5 -10    8.03    1.27
   5   5 -10    8.56    1.33
  -3  -5  10   -0.03    0.37
   3  -5 -10    0.19    0.47
  -3  -5  10   -0.24    0.32
   3   5 -10   -0.29    0.43
   3   5 -10   -0.16    0.48
   1  -5 -10   -0.25    0.40
  -1  -5  10    0.12    0.29
  -1  -5  10   -0.07    0.29
   1   5 -10    0.18    0.44
   1   5 -10    0.17    0.38
   1   5 -10    0.37    0.46
   1  -5  10    0.77    0.36
   1  -5  10    0.17    0.27
  -1  -5 -10    0.00    0.49
  -1  -5 -10   -0.64    0.38
  -1   5 -10    0.61    0.45
  -1   5 -10    0.30    0.40
  -1   5 -10   -0.11    0.33
   3  -5  10    0.02    0.23
  -3  -5 -10    0.44    0.43
   3  -5  10   -0.13    0.23
  -3  -5 -10    0.67    0.38
  -3  -5 -10   -0.46    0.50
  -3   5 -10    0.32    0.38
  -3   5 -10    0.61    0.49
  -5  -5 -10   13.71    1.44
  -5  -5 -10   12.05    1.45
   5  -5  10   14.42    1.17
   5  -5  10   10.51    1.13
  -5  -5 -10   12.87    1.65
  -5   5 -10   13.50    1.52
  -5   5 -10   12.51    1.38
  -5   5 -10   10.92    1.36
  -7  -5 -10    0.79    0.50
   7  -5  10    0.64    0.33
  -7  -5 -10    1.41    0.64
  -7   5 -10    1.09    0.53
  -7   5 -10    0.44    0.47
  -7   5 -10    0.36    0.56
   9  -5  10   -0.12    0.37
  -9  -5 -10    1.31    0.63
  -9   5 -10   -0.06    0.49
  -9   5 -10    0.20    0.56
  -9   5 -10    2.70    0.88
   8  -6 -10    5.92    0.81
  -8  -6  10    5.57    0.94
  -8  -6  10    7.32    1.14
   8  -6 -10    3.92    0.71
   8   6 -10    9.07    1.39
   8   6 -10    6.35    1.31
  -6  -6  10    1.35    0.51
   6  -6 -10    1.14    0.33
  -6  -6  10    1.38    0.54
   6  -6 -10    1.04    0.66
   6   6 -10    0.48    0.65
   6   6 -10    1.28    0.77
  -4  -6  10   34.67    2.79
  -4  -6  10   34.64    2.86
   4  -6 -10   35.03    3.06
   4   6 -10   40.55    3.06
   4   6 -10   32.92    3.13
  -2  -6  10    4.09    0.71
  -2  -6  10    3.76    0.70
   2  -6 -10    4.86    0.92
   2   6 -10    5.30    1.02
   2   6 -10    4.78    0.90
   0  -6 -10   31.77    2.80
   0  -6  10   29.98    2.48
   0  -6  10   33.86    2.58
   0   6 -10   34.59    2.84
   0   6 -10   33.01    2.69
  -2  -6 -10    5.08    0.98
  -2  -6 -10    4.14    0.65
   2  -6  10    5.23    0.69
   2  -6  10    4.07    0.62
  -2  -6 -10    6.46    0.96
  -2   6 -10    3.55    0.73
  -2   6 -10    3.82    0.82
  -4  -6 -10   32.64    2.69
  -4  -6 -10   30.36    2.79
   4  -6  10   32.22    2.52
  -4  -6 -10   34.40    3.00
   4  -6  10   32.32    2.46
  -4   6 -10   36.43    2.71
  -4   6 -10   33.91    2.80
   6  -6  10    1.58    0.39
  -6  -6 -10    0.81    0.51
  -6  -6 -10    1.29    0.61
   6  -6  10    1.05    0.36
  -6   6 -10    0.74    0.59
  -6   6 -10    1.85    0.72
  -6   6 -10    0.55    0.52
  -8  -6 -10    7.39    1.26
   8  -6  10    6.84    0.95
  -8   6 -10    8.36    1.19
  -8   6 -10    8.96    1.36
  -8   6 -10    5.95    1.06
  -8   6 -10    7.84    1.12
   7  -7 -10    0.79    0.66
  -7  -7  10   -0.09    0.40
   7  -7 -10    0.03    0.29
  -7  -7  10   -0.03    0.43
   7   7 -10    0.46    0.75
  -5  -7  10    0.77    0.46
   5  -7 -10    1.32    0.67
  -5  -7  10    0.38    0.41
   5   7 -10    1.38    0.72
   5   7 -10    1.58    0.85
  -3  -7  10    0.80    0.43
   3  -7 -10    1.36    0.64
  -3  -7  10    1.77    0.64
  -3  -7  10    1.11    0.45
   3   7 -10    1.17    0.70
   3   7 -10    1.58    0.67
  -1  -7  10    1.12    0.38
   1  -7 -10    0.44    0.53
  -1  -7  10    0.93    0.40
   1   7 -10    1.74    0.71
   1   7 -10    0.71    0.53
  -1  -7 -10    0.03    0.44
   1  -7  10    0.05    0.28
  -1  -7 -10   -0.04    0.53
   1  -7  10    0.29    0.28
  -1   7 -10   -0.04    0.48
  -1   7 -10   -0.02    0.44
  -3  -7 -10   -0.02    0.38
  -3  -7 -10    0.75    0.68
  -3  -7 -10   -0.48    0.40
   3  -7  10    0.55    0.30
   3  -7  10   -0.20    0.23
  -3   7 -10    0.17    0.53
  -3   7 -10    0.39    0.45
  -5  -7 -10    0.56    0.66
  -5  -7 -10    0.86    0.54
  -5  -7 -10    0.22    0.48
   5  -7  10    0.08    0.26
   5  -7  10    0.16    0.27
  -5   7 -10    0.70    0.59
  -5   7 -10   -0.18    0.44
   7  -7  10    3.00    0.61
   7  -7  10    2.25    0.54
  -7  -7 -10    4.27    0.92
  -7  -7 -10    2.35    0.71
   7  -7  10    3.25    0.62
  -7   7 -10    2.69    0.74
  -7   7 -10    4.27    0.97
  -7   7 -10    3.80    0.91
  -6  -8  10    3.18    0.65
  -6  -8  10    3.07    0.69
   6  -8 -10    1.55    0.79
   6   8 -10    3.88    1.11
  -4  -8  10    0.22    0.37
   4  -8 -10   -0.16    0.57
  -4  -8  10    0.32    0.40
   4   8 -10   -0.66    0.58
   4   8 -10    0.30    0.66
  -2  -8  10   28.90    2.20
   2  -8 -10   29.05    2.54
  -2  -8  10   22.54    2.72
  -2  -8  10   26.68    2.22
   2   8 -10   31.14    2.94
   2   8 -10   28.60    2.70
   0  -8 -10    0.48    0.68
   0  -8  10    0.33    0.32
   0  -8 -10    0.46    0.53
   0  -8  10    0.59    0.34
   0   8 -10    0.17    0.52
   0   8 -10    0.46    0.60
   2  -8  10   14.03    1.27
  -2  -8 -10   12.69    1.56
   2  -8  10   14.03    1.26
  -2  -8 -10   18.15    2.02
  -2   8 -10   13.32    1.71
  -2   8 -10   15.67    1.71
  -4  -8 -10    0.53    0.49
   4  -8  10    0.77    0.32
  -4  -8 -10    1.33    0.82
   4  -8  10    0.33    0.29
  -4  -8 -10    0.91    0.52
  -4   8 -10    0.20    0.50
  -4   8 -10    0.13    0.60
  -6  -8 -10    9.56    1.31
   6  -8  10    9.42    1.06
   6  -8  10    9.50    1.07
  -6  -8 -10   12.13    1.54
   6  -8  10   11.44    1.17
  -6   8 -10    8.78    1.31
  -6   8 -10    8.74    1.39
  -5  -9  10   -0.19    0.36
   5  -9 -10   -0.15    0.63
  -5  -9  10    0.15    0.37
   5   9 -10    0.22    0.81
  -3  -9  10    1.69    0.74
  -3  -9  10    2.30    0.55
   3  -9 -10    2.47    0.80
  -3  -9  10    1.97    0.48
   3   9 -10    1.72    0.88
  -1  -9  10    0.22    0.60
   1  -9 -10    0.05    0.54
  -1  -9  10   -0.24    0.27
  -1  -9  10   -0.05    0.29
   1   9 -10    0.21    0.61
   1   9 -10   -0.59    0.59
  -1  -9 -10    0.62    0.64
  -1  -9 -10   -0.58    0.42
   1  -9  10    0.50    0.32
   1  -9  10    0.32    0.30
  -1   9 -10    0.52    0.63
  -1   9 -10   -0.22    0.49
  -3  -9 -10    0.07    0.45
  -3  -9 -10   -0.03    0.68
   3  -9  10    0.36    0.31
   3  -9  10    0.22    0.30
  -3   9 -10    0.25    0.62
  -3   9 -10   -0.53    0.49
   5  -9  10    0.74    0.38
  -5  -9 -10    0.39    0.50
  -5  -9 -10    1.13    0.65
   5  -9  10   -0.24    0.32
  -5  -9 -10    0.31    0.81
  -5   9 -10   -0.70    0.61
  -5   9 -10    0.27    0.60
   2 -10 -10    0.14    0.63
  -2 -10  10   -0.02    0.31
  -2 -10  10    0.50    0.67
  -2 -10  10   -0.10    0.31
   2  10 -10    0.12    0.69
   0 -10  10    3.46    0.58
   0 -10  10    3.68    0.58
   0 -10 -10    2.61    0.95
   0 -10 -10    4.07    0.86
   0 -10  10    2.10    0.90
   0  10 -10    4.08    1.02
   0  10 -10    2.72    0.88
   2 -10  10    0.18    0.31
   2 -10  10   -0.05    0.28
  -2 -10 -10   -0.18    0.71
  -2 -10 -10    0.09    0.50
  -2  10 -10    0.26    0.66
  -2  10 -10   -1.09    0.54
   8   0 -11    0.21    0.48
  -8   0  11   -0.17    0.44
   8   0 -11   -0.09    0.45
  -8   0  11    0.25    0.49
  -6   0  11    0.28    0.41
   6   0 -11   -0.48    0.37
   6   0 -11    0.47    0.42
  -6   0  11    0.71    0.44
   4   0 -11    0.37    0.40
  -4   0  11   -0.53    0.31
   4   0 -11   -0.67    0.27
  -4   0  11    0.61    0.40
   2   0 -11   -0.15    0.27
  -2   0  11   -0.28    0.26
   2   0 -11   -0.20    0.40
  -2   0  11    0.34    0.33
   2   0 -11   -0.34    0.26
   0   0 -11    3.82    0.50
   0   0 -11    4.09    0.73
   0   0  11    3.62    0.58
  -2   0 -11   -0.55    0.33
  -2   0 -11    0.40    0.22
   2   0  11   -0.20    0.25
  -2   0 -11   -0.22    0.38
  -2   0 -11    0.08    0.23
  -2   0 -11    0.25    0.20
  -4   0 -11   -0.21    0.25
  -4   0 -11   -0.11    0.32
  -6   0 -11   -0.48    0.32
  -6   0 -11   -0.25    0.31
  -8   0 -11   -0.11    0.43
   9  -1 -11   -0.34    0.45
  -9  -1  11    0.03    0.51
   9  -1 -11   -0.34    0.46
  -9  -1  11    0.68    0.54
  -9   1  11   -0.82    0.46
   9   1 -11   -0.03    0.54
   9   1 -11   -0.55    0.52
  -9   1  11   -0.98    0.46
  -7  -1  11    2.03    0.63
  -7  -1  11    1.69    0.61
   7  -1 -11    1.86    0.58
   7  -1 -11    0.56    0.45
  -7   1  11    1.59    0.57
   7   1 -11    2.46    0.73
  -7   1  11    1.00    0.51
   7   1 -11    0.19    0.52
  -5  -1  11    6.19    0.93
  -5  -1  11    4.61    0.81
   5  -1 -11    4.57    0.73
   5  -1 -11    3.81    0.72
   5   1 -11    3.40    0.73
   5   1 -11    2.87    0.72
  -5   1  11    6.40    0.90
  -5   1  11    5.55    0.85
   3  -1 -11    0.93    0.35
   3  -1 -11    0.06    0.50
   3  -1 -11    0.79    0.36
  -3  -1  11    0.27    0.40
  -3  -1  11    0.10    0.35
   3   1 -11    0.42    0.39
   3   1 -11    0.70    0.41
  -3   1  11    1.13    0.43
   1  -1 -11   -0.38    0.20
   1  -1 -11    0.53    0.46
  -1  -1  11    0.57    0.37
  -1  -1  11    0.17    0.31
   1  -1 -11    0.22    0.25
  -1   1  11    0.67    0.34
   1   1 -11    0.17    0.42
   1   1 -11   -0.04    0.31
   1   1 -11    0.03    0.28
  -1  -1 -11    4.37    0.76
   1  -1  11    2.67    0.54
   1  -1  11    2.89    0.54
  -1  -1 -11    4.74    0.82
  -1   1 -11    3.68    0.72
  -1   1 -11    3.58    0.52
  -1   1 -11    3.98    0.57
   1   1  11    3.07    0.56
  -1   1 -11    4.34    0.67
  -1   1 -11    3.54    0.45
  -3  -1 -11    0.27    0.42
  -3  -1 -11    0.07    0.25
   3  -1  11   -0.04    0.25
  -3  -1 -11   -0.06    0.37
  -3   1 -11    0.68    0.41
  -3   1 -11    0.31    0.26
  -3   1 -11    0.18    0.25
  -3   1 -11   -0.11    0.25
  -5  -1 -11    0.62    0.46
   5  -1  11    0.74    0.32
  -5  -1 -11    0.44    0.36
  -5   1 -11    0.78    0.28
  -5   1 -11    0.85    0.42
  -5   1 -11    0.67    0.36
  -7  -1 -11    0.69    0.45
  -7  -1 -11    1.37    0.49
  -7   1 -11    1.10    0.45
  -7   1 -11    1.81    0.34
  -7   1 -11    1.92    0.57
  -9  -1 -11   -0.38    0.47
  -9   1 -11   -0.32    0.46
   8  -2 -11    0.03    0.38
  -8  -2  11    0.61    0.52
  -8  -2  11    0.39    0.48
   8  -2 -11    0.25    0.43
  -8   2  11    0.15    0.52
   8   2 -11   -0.34    0.49
   8   2 -11    0.22    0.54
   6  -2 -11    0.82    0.40
   6  -2 -11    1.29    0.45
  -6  -2  11    0.94    0.53
  -6  -2  11    0.49    0.44
  -6   2  11    0.51    0.45
   6   2 -11   -0.04    0.47
   6   2 -11    0.50    0.47
  -4  -2  11    5.86    0.97
  -4  -2  11    9.20    1.10
   4  -2 -11    7.31    0.85
   4  -2 -11    7.34    0.86
   4   2 -11    7.84    1.10
   4   2 -11    6.55    0.99
  -4   2  11    7.07    0.96
   2  -2 -11   -0.26    0.41
   2  -2 -11    0.84    0.27
  -2  -2  11    1.59    0.46
  -2  -2  11    1.02    0.45
  -2   2  11    0.96    0.36
   2   2 -11    0.09    0.44
   2   2 -11    0.32    0.37
   2   2 -11    1.09    0.48
   0  -2 -11   -0.06    0.38
   0  -2  11    0.39    0.33
   0  -2  11    0.18    0.30
   0   2 -11    0.04    0.30
   0   2 -11    0.08    0.39
   0   2 -11    0.12    0.34
   0   2 -11    0.38    0.33
  -2  -2 -11    1.00    0.29
   2  -2  11    0.93    0.36
  -2  -2 -11    1.22    0.55
  -2  -2 -11    0.45    0.45
   2  -2  11    0.74    0.36
  -2   2 -11    1.91    0.42
  -2   2 -11    0.97    0.33
  -2   2 -11    1.03    0.48
  -2   2 -11    1.62    0.42
  -4  -2 -11    0.63    0.43
   4  -2  11    0.92    0.34
  -4  -2 -11    0.58    0.37
  -4  -2 -11    1.05    0.55
  -4   2 -11    0.76    0.35
  -4   2 -11    1.15    0.37
  -4   2 -11    0.59    0.36
  -4   2 -11    0.85    0.35
  -6  -2 -11    0.19    0.41
   6  -2  11    0.11    0.25
  -6  -2 -11   -0.15    0.35
  -6   2 -11   -0.17    0.38
  -6   2 -11    0.26    0.30
  -6   2 -11   -0.01    0.33
  -6   2 -11    0.21    0.31
  -8  -2 -11    1.24    0.56
  -8   2 -11    0.95    0.38
  -8   2 -11    0.70    0.56
  -8   2 -11    0.78    0.36
   9  -3 -11   -0.05    0.42
  -9  -3  11    0.39    0.50
   9  -3 -11    0.10    0.43
  -9  -3  11   -0.10    0.52
   9   3 -11   -0.19    0.58
   9   3 -11   -0.92    0.52
  -9   3  11    0.13    0.57
  -7  -3  11    0.05    0.45
   7  -3 -11    0.68    0.42
  -7  -3  11   -0.20    0.36
   7  -3 -11   -0.49    0.32
  -7   3  11    0.55    0.54
   7   3 -11   -0.09    0.48
   7   3 -11    0.19    0.54
   5  -3 -11   -0.11    0.33
  -5  -3  11    0.46    0.45
   5  -3 -11    1.18    0.39
  -5  -3  11    0.63    0.43
   5   3 -11    1.43    0.59
  -5   3  11    0.00    0.41
   5   3 -11    1.66    0.63
   3  -3 -11    4.09    0.89
   3  -3 -11    4.51    0.53
  -3  -3  11    3.41    0.69
  -3  -3  11    4.41    0.77
   3   3 -11    4.13    0.80
   3   3 -11    3.56    0.78
  -3   3  11    5.91    0.78
   1  -3 -11    4.18    0.83
  -1  -3  11    4.50    0.68
  -1  -3  11    3.83    0.68
   1   3 -11    3.23    0.77
   1   3 -11    3.02    0.70
   1   3 -11    5.23    0.79
  -1  -3 -11    4.30    0.84
   1  -3  11    5.28    0.74
  -1  -3 -11    4.67    0.88
   1  -3  11    4.07    0.64
  -1   3 -11    4.98    0.75
  -1   3 -11    5.32    0.83
  -1   3 -11    4.52    0.71
  -3  -3 -11    0.51    0.44
   3  -3  11    0.26    0.30
  -3  -3 -11    0.32    0.30
  -3  -3 -11    0.02    0.52
   3  -3  11    0.26    0.26
  -3   3 -11    0.49    0.33
  -3   3 -11    0.05    0.32
  -3   3 -11    0.42    0.33
  -3   3 -11    0.28    0.36
   5  -3  11    0.28    0.29
  -5  -3 -11    0.24    0.44
  -5  -3 -11   -0.17    0.38
  -5   3 -11    0.39    0.31
  -5   3 -11   -0.36    0.31
  -5   3 -11   -0.12    0.34
  -5   3 -11    0.71    0.42
  -7  -3 -11    0.45    0.46
   7  -3  11    0.83    0.33
  -7  -3 -11    0.31    0.45
  -7   3 -11    0.08    0.46
  -7   3 -11    0.10    0.38
  -7   3 -11    0.77    0.45
  -9  -3 -11   -0.24    0.51
  -9   3 -11    0.80    0.44
  -9   3 -11    0.24    0.47
  -9   3 -11   -0.25    0.60
   8  -4 -11   -0.19    0.38
  -8  -4  11    0.03    0.49
   8  -4 -11   -0.43    0.34
  -8  -4  11   -0.21    0.48
   8   4 -11   -0.48    0.63
  -8   4  11    0.35    0.59
   8   4 -11   -0.28    0.57
  -6  -4  11   -0.36    0.44
   6  -4 -11    0.36    0.36
   6  -4 -11    0.23    0.32
  -6  -4  11    0.45    0.44
   6   4 -11    0.25    0.53
  -6   4  11   -0.67    0.44
   6   4 -11   -0.27    0.49
  -4  -4  11    3.55    0.70
  -4  -4  11    3.87    0.76
   4  -4 -11    3.60    0.48
   4  -4 -11    3.73    0.85
   4   4 -11    4.01    0.95
   4   4 -11    3.23    0.80
  -2  -4  11    0.51    0.36
  -2  -4  11    0.43    0.39
   2  -4 -11    0.57    0.53
   2   4 -11    0.48    0.45
   2   4 -11    0.71    0.53
   0  -4  11    2.81    0.57
   0  -4 -11    2.17    0.68
   0  -4  11    3.21    0.58
   0   4 -11    4.01    0.71
   0   4 -11    2.07    0.57
   0   4 -11    3.07    0.68
   2  -4  11    4.83    0.67
  -2  -4 -11    4.31    0.93
   2  -4  11    3.90    0.64
  -2  -4 -11    3.20    0.80
  -2   4 -11    5.13    0.80
  -2   4 -11    4.44    0.73
  -2   4 -11    5.87    0.76
   4  -4  11    3.25    0.55
   4  -4  11    2.60    0.47
  -4  -4 -11    2.54    0.67
  -4  -4 -11    2.92    0.84
  -4  -4 -11    2.84    0.60
  -4   4 -11    3.31    0.52
  -4   4 -11    3.96    0.73
  -4   4 -11    4.43    0.76
  -4   4 -11    4.02    0.67
  -6  -4 -11   -0.17    0.43
   6  -4  11    0.20    0.27
  -6  -4 -11   -0.44    0.39
  -6   4 -11    0.45    0.45
  -6   4 -11   -0.16    0.45
  -6   4 -11    0.36    0.37
  -8  -4 -11   -0.15    0.48
   8  -4  11    0.21    0.35
  -8  -4 -11   -0.31    0.49
  -8   4 -11   -0.04    0.48
  -8   4 -11    0.91    0.62
  -8   4 -11    0.90    0.47
  -7  -5  11    0.62    0.53
   7  -5 -11    0.28    0.60
  -7  -5  11   -0.27    0.41
   7  -5 -11    0.18    0.36
   7  -5 -11   -0.27    0.30
   7   5 -11    0.38    0.69
   7   5 -11   -0.17    0.60
   5  -5 -11    1.41    0.64
  -5  -5  11    0.03    0.41
   5  -5 -11    0.57    0.28
  -5  -5  11    0.34    0.43
   5   5 -11   -0.08    0.52
   5   5 -11   -0.73    0.54
   3  -5 -11    0.13    0.54
  -3  -5  11    0.38    0.39
  -3  -5  11    0.19    0.39
   3   5 -11    0.04    0.48
   3   5 -11   -0.07    0.52
  -1  -5  11    1.31    0.47
   1  -5 -11    1.30    0.58
  -1  -5  11    1.47    0.47
   1   5 -11    1.41    0.61
   1   5 -11    1.91    0.61
   1   5 -11    0.96    0.53
   1  -5  11    0.13    0.30
  -1  -5 -11    0.20    0.51
  -1  -5 -11    0.10    0.51
   1  -5  11    0.75    0.35
  -1   5 -11    0.44    0.41
  -1   5 -11    0.53    0.47
  -1   5 -11    0.75    0.46
  -3  -5 -11    1.10    0.65
  -3  -5 -11    0.37    0.53
   3  -5  11    0.24    0.28
   3  -5  11    0.37    0.28
  -3   5 -11    0.48    0.40
  -3   5 -11   -0.14    0.40
  -5  -5 -11    0.49    0.46
  -5  -5 -11    0.71    0.69
   5  -5  11   -0.49    0.23
  -5  -5 -11   -0.17    0.42
   5  -5  11    0.21    0.26
  -5   5 -11   -0.22    0.39
  -5   5 -11   -0.03    0.45
  -5   5 -11    0.20    0.47
  -7  -5 -11   -0.25    0.53
   7  -5  11    0.33    0.32
  -7  -5 -11    0.59    0.50
  -7   5 -11    0.28    0.54
  -7   5 -11    0.42    0.56
  -7   5 -11    0.38    0.53
  -7   5 -11    0.58    0.47
  -8  -6  11    0.18    0.49
   8  -6 -11   -0.05    0.39
   8   6 -11   -1.78    0.63
  -6  -6  11    1.04    0.51
  -6  -6  11    0.34    0.49
   6  -6 -11    1.19    0.68
   6  -6 -11    0.65    0.31
   6   6 -11    0.53    0.74
   6   6 -11    1.19    0.76
   4  -6 -11    1.90    0.73
  -4  -6  11    2.43    0.57
  -4  -6  11    0.27    0.47
   4   6 -11    1.23    0.66
   4   6 -11    2.15    0.81
   2  -6 -11    1.16    0.63
  -2  -6  11    0.31    0.36
  -2  -6  11   -0.21    0.34
   2   6 -11    0.28    0.58
   2   6 -11    0.42    0.50
   2   6 -11    0.20    0.55
   0  -6 -11    0.53    0.54
   0  -6  11    1.61    0.48
   0  -6  11    1.20    0.42
   0   6 -11    0.40    0.52
   0   6 -11    0.93    0.56
   2  -6  11   11.21    1.16
   2  -6  11   11.59    1.20
  -2  -6 -11   13.97    1.56
  -2  -6 -11   12.35    1.62
  -2   6 -11   12.15    1.41
  -2   6 -11   10.04    1.38
  -4  -6 -11    0.90    0.73
  -4  -6 -11    0.26    0.52
   4  -6  11    0.80    0.36
  -4  -6 -11    1.17    0.51
   4  -6  11    0.40    0.30
  -4   6 -11    0.51    0.50
  -4   6 -11    0.12    0.47
  -6  -6 -11    1.47    0.57
   6  -6  11    0.55    0.33
  -6  -6 -11    1.41    0.62
   6  -6  11    0.61    0.32
  -6   6 -11    1.70    0.58
  -6   6 -11    1.16    0.62
  -6   6 -11    0.09    0.55
  -8   6 -11    0.87    0.58
  -7  -7  11    1.07    0.54
   7  -7 -11    1.70    0.79
  -7  -7  11    0.20    0.45
   7   7 -11    0.43    0.78
   7   7 -11    2.47    0.99
  -5  -7  11   -0.11    0.39
  -5  -7  11   -0.47    0.38
   5  -7 -11    0.70    0.61
   5   7 -11   -0.22    0.66
   5   7 -11   -0.03    0.63
  -3  -7  11    2.60    0.64
   3  -7 -11    1.61    0.74
  -3  -7  11    4.10    0.72
   3   7 -11    3.17    0.93
   3   7 -11    3.21    0.88
  -1  -7  11    0.12    0.37
   1  -7 -11    1.29    0.64
  -1  -7  11    0.14    0.32
   1   7 -11   -0.69    0.52
   1   7 -11    0.49    0.55
   1  -7  11    1.10    0.40
  -1  -7 -11    0.07    0.62
  -1  -7 -11    0.79    0.56
   1  -7  11    0.50    0.34
  -1   7 -11    0.96    0.58
  -1   7 -11    0.53    0.57
  -3  -7 -11   -0.22    0.64
   3  -7  11    0.83    0.36
  -3  -7 -11    1.28    0.58
   3  -7  11    2.22    0.45
  -3   7 -11    0.89    0.61
  -3   7 -11    0.39    0.48
   5  -7  11    0.55    0.32
   5  -7  11    0.09    0.29
  -5  -7 -11   -0.10    0.46
  -5  -7 -11   -0.22    0.50
  -5  -7 -11    0.57    0.79
  -5   7 -11    0.31    0.52
  -5   7 -11    0.13    0.50
  -7  -7 -11   -0.27    0.50
   7  -7  11    0.71    0.40
   7  -7  11    0.30    0.38
   7  -7  11    0.06    0.34
  -7  -7 -11   -0.73    0.58
  -7   7 -11    0.80    0.59
  -7   7 -11   -0.25    0.57
  -7   7 -11   -0.12    0.64
   6  -8 -11    0.61    0.71
  -6  -8  11    1.09    0.55
  -6  -8  11    1.49    0.57
   6   8 -11    0.18    0.84
  -4  -8  11    2.48    0.59
   4  -8 -11    3.89    0.97
  -4  -8  11    3.22    0.68
   4   8 -11    2.75    0.91
   4   8 -11    3.90    1.08
  -2  -8  11    3.19    0.62
   2  -8 -11    2.75    0.84
  -2  -8  11    3.44    0.62
  -2  -8  11    2.66    0.83
   2   8 -11    0.86    0.70
   2   8 -11    3.39    0.93
   0  -8  11    2.77    0.58
   0  -8 -11    4.58    1.07
   0  -8 -11    3.57    0.89
   0  -8  11    3.91    0.64
   0   8 -11    3.17    0.88
   0   8 -11    2.95    0.89
  -2  -8 -11    0.69    0.70
  -2  -8 -11    0.07    0.49
   2  -8  11   -0.04    0.28
   2  -8  11   -0.09    0.27
  -2   8 -11   -0.14    0.45
  -2   8 -11    0.13    0.60
  -4  -8 -11    5.69    1.20
   4  -8  11    1.57    0.41
  -4  -8 -11    1.40    0.60
   4  -8  11    1.22    0.42
  -4   8 -11    3.48    0.80
  -4   8 -11    2.06    0.79
   6  -8  11    0.26    0.37
  -6  -8 -11    0.90    0.58
   6  -8  11    0.57    0.35
  -6   8 -11    0.48    0.60
  -6   8 -11    0.46    0.65
  -6   8 -11   -0.08    0.63
  -3  -9  11    0.78    0.41
  -3  -9  11    0.62    0.42
   3  -9 -11    1.70    0.76
   3   9 -11   -1.32    0.61
   3   9 -11   -0.72    0.69
  -1  -9  11    0.65    0.40
   1  -9 -11    1.14    0.69
  -1  -9  11    0.70    0.69
  -1  -9  11    1.41    0.43
   1   9 -11    0.10    0.69
   1   9 -11    1.82    0.79
  -1  -9 -11   -0.21    0.65
  -1  -9 -11    0.21    0.55
   1  -9  11    0.29    0.32
   1  -9  11    0.00    0.30
  -1   9 -11    0.18    0.59
  -1   9 -11   -0.08    0.64
  -3  -9 -11   -0.63    0.71
   3  -9  11   -0.06    0.29
  -3  -9 -11   -0.40    0.49
   3  -9  11   -0.08    0.27
  -3   9 -11    0.21    0.70
  -3   9 -11    0.60    0.62
  -2 -10  11    2.96    0.62
   0 -10  11    0.74    0.39
   0 -10 -11    3.18    0.81
   0 -10 -11    1.17    0.87
   0 -10  11    2.09    0.88
   0 -10  11    1.22    0.44
   0  10 -11    0.98    0.76
   0  10 -11    2.47    0.95
   2 -10  11    2.32    0.52
   8   0 -12   18.33    2.07
  -8   0  12   22.38    2.20
  -8   0  12   22.79    2.21
   8   0 -12   20.87    2.09
  -6   0  12    0.26    0.50
   6   0 -12    1.04    0.48
  -6   0  12    2.06    0.60
   6   0 -12    1.49    0.54
   4   0 -12   49.98    3.61
   4   0 -12   44.97    3.68
  -4   0  12   46.59    3.73
  -4   0  12   51.27    3.67
   2   0 -12    1.13    0.40
   2   0 -12    0.27    0.51
  -2   0  12    2.13    0.55
   2   0 -12    0.65    0.37
   0   0 -12   71.40    4.61
   0   0 -12   58.27    4.19
   0   0 -12   58.21    4.71
   0   0  12   59.95    4.48
   0   0 -12   56.27    4.30
  -2   0 -12    1.02    0.26
  -2   0 -12    1.26    0.54
   2   0  12    1.19    0.42
  -2   0 -12    0.93    0.48
  -4   0 -12  109.93    7.81
  -4   0 -12   99.66    7.34
  -6   0 -12    0.92    0.42
  -6   0 -12    0.70    0.43
  -8   0 -12   12.95    1.47
   9  -1 -12   -0.02    0.44
   9  -1 -12    0.27    0.50
  -9  -1  12   -0.32    0.51
  -9  -1  12    0.24    0.57
  -9   1  12    0.88    0.64
  -9   1  12    0.75    0.63
   9   1 -12   -0.71    0.48
   9   1 -12   -0.65    0.51
  -7  -1  12    0.33    0.54
   7  -1 -12    1.23    0.52
   7  -1 -12    0.94    0.48
  -7  -1  12    0.41    0.54
   7   1 -12    0.37    0.50
  -7   1  12    1.76    0.63
   7   1 -12    0.44    0.46
   5  -1 -12    0.48    0.40
   5  -1 -12    0.24    0.42
  -5  -1  12    0.28    0.43
  -5  -1  12    1.01    0.51
   5   1 -12   -0.15    0.42
   5   1 -12    0.70    0.48
  -5   1  12   -0.13    0.39
   3  -1 -12    0.91    0.37
   3  -1 -12    1.01    0.57
  -3  -1  12    1.39    0.46
   3  -1 -12    1.39    0.41
  -3  -1  12    1.63    0.55
  -3   1  12    1.59    0.48
   3   1 -12    1.12    0.62
   3   1 -12    0.69    0.44
   3   1 -12    0.75    0.46
   1  -1 -12    2.46    0.68
  -1  -1  12    3.74    0.66
   1  -1 -12    3.49    0.48
  -1  -1  12    4.87    0.75
   1   1 -12    3.77    0.81
   1   1 -12    2.61    0.58
   1   1 -12    3.35    0.60
  -1   1  12    3.64    0.64
  -1  -1 -12    2.13    0.67
   1  -1  12    2.41    0.54
  -1  -1 -12    1.84    0.60
  -1   1 -12    2.68    0.49
  -1   1 -12    2.21    0.45
  -1   1 -12    3.59    0.64
  -1   1 -12    2.95    0.71
  -3  -1 -12    5.78    0.88
  -3  -1 -12    4.35    0.61
  -3  -1 -12    5.45    0.94
   3  -1  12    4.27    0.68
  -3   1 -12    5.18    0.61
  -3   1 -12    5.00    0.84
  -3   1 -12    5.31    0.67
  -3   1 -12    5.07    0.56
  -5  -1 -12    0.73    0.39
  -5  -1 -12    0.39    0.42
  -5   1 -12   -0.16    0.34
  -5   1 -12    0.81    0.44
  -5   1 -12   -0.05    0.23
  -7  -1 -12    0.59    0.44
  -7  -1 -12    0.49    0.46
  -7   1 -12    0.22    0.42
  -7   1 -12    0.44    0.40
  -9  -1 -12    0.56    0.61
  -9   1 -12   -0.21    0.50
  -8  -2  12    0.99    0.55
   8  -2 -12    0.29    0.47
   8  -2 -12    0.58    0.47
  -8  -2  12    1.03    0.62
   8   2 -12    0.75    0.63
  -8   2  12   -0.11    0.53
   8   2 -12    0.29    0.54
  -6  -2  12   22.22    1.95
   6  -2 -12   20.20    1.86
  -6  -2  12   24.56    2.10
   6  -2 -12   21.06    1.86
   6   2 -12   20.50    2.21
  -6   2  12   22.91    2.07
   6   2 -12   21.84    2.23
   4  -2 -12    1.45    0.42
   4  -2 -12    1.74    0.44
   4  -2 -12    0.77    0.58
  -4  -2  12    1.43    0.47
  -4  -2  12    0.82    0.48
   4   2 -12    0.37    0.45
  -4   2  12    1.88    0.53
   4   2 -12    0.19    0.45
  -2  -2  12   68.09    5.21
   2  -2 -12   73.28    4.81
  -2  -2  12   63.47    5.01
   2  -2 -12   78.80    5.54
   2   2 -12   68.50    5.04
   2   2 -12   66.48    5.19
  -2   2  12   70.71    5.15
   2   2 -12   68.73    5.41
   0  -2 -12    0.54    0.48
   0  -2 -12    0.67    0.59
   0  -2  12    0.36    0.37
   0  -2  12   -0.05    0.31
   0   2 -12   -0.11    0.36
   0   2 -12   -0.17    0.41
   0   2 -12    0.45    0.37
   0   2 -12    0.37    0.36
  -2  -2 -12  104.78    7.40
  -2  -2 -12   93.23    7.50
   2  -2  12   98.16    7.14
  -2   2 -12   90.59    6.95
  -2   2 -12  100.05    7.10
  -2   2 -12  109.56    7.46
  -2   2 -12  100.62    6.88
  -4  -2 -12    2.18    0.49
  -4  -2 -12    1.03    0.62
   4  -2  12    1.54    0.42
  -4  -2 -12    1.78    0.59
  -4   2 -12    1.66    0.47
  -4   2 -12    0.96    0.39
  -4   2 -12    1.44    0.40
  -4   2 -12    1.20    0.44
  -6  -2 -12   25.95    2.37
  -6  -2 -12   26.09    2.48
  -6   2 -12   30.50    2.21
  -6   2 -12   25.50    2.36
  -6   2 -12   28.30    2.33
  -6   2 -12   31.67    2.20
  -8  -2 -12    0.83    0.54
  -8  -2 -12   -0.32    0.46
  -8   2 -12   -0.14    0.31
  -8   2 -12   -0.06    0.50
   7  -3 -12    0.52    0.42
  -7  -3  12   -0.04    0.50
  -7  -3  12    0.38    0.47
   7  -3 -12    1.05    0.45
   7   3 -12    0.42    0.60
  -7   3  12    0.09    0.50
   7   3 -12    1.30    0.69
  -5  -3  12    0.84    0.50
   5  -3 -12    0.32    0.32
  -5  -3  12   -0.12    0.38
   5  -3 -12    1.29    0.41
   5  -3 -12    0.84    0.61
  -5   3  12    0.75    0.48
   5   3 -12   -0.44    0.47
   5   3 -12    0.40    0.51
   3  -3 -12    3.74    0.45
   3  -3 -12    4.39    0.88
  -3  -3  12    4.10    0.78
  -3  -3  12    3.71    0.69
   3   3 -12    2.91    0.73
   3   3 -12    2.96    0.76
  -1  -3  12    0.57    0.40
  -1  -3  12   -0.31    0.32
   1  -3 -12    0.63    0.52
   1   3 -12    0.27    0.40
   1   3 -12   -0.13    0.47
   1   3 -12   -0.22    0.35
   1  -3  12    0.62    0.37
   1  -3  12    1.28    0.44
  -1  -3 -12    1.49    0.62
  -1  -3 -12    1.60    0.66
  -1   3 -12    0.84    0.43
  -1   3 -12    2.63    0.65
  -1   3 -12    1.07    0.46
   3  -3  12   -0.51    0.28
  -3  -3 -12    0.70    0.55
  -3  -3 -12    0.06    0.42
  -3   3 -12    0.02    0.35
  -3   3 -12   -0.04    0.35
  -3   3 -12    0.31    0.38
  -3   3 -12    0.04    0.33
  -5  -3 -12    0.74    0.49
   5  -3  12    0.37    0.32
  -5  -3 -12    0.25    0.42
  -5   3 -12    0.02    0.40
  -5   3 -12    0.02    0.33
  -5   3 -12    0.54    0.43
  -5   3 -12    0.43    0.38
   7  -3  12    0.30    0.36
  -7  -3 -12    0.08    0.50
  -7  -3 -12    0.64    0.49
  -7   3 -12   -0.06    0.41
  -7   3 -12    0.13    0.39
  -7   3 -12    0.45    0.50
  -8  -4  12    6.47    1.06
   8  -4 -12    7.31    0.96
   8  -4 -12    7.00    0.94
  -8  -4  12    6.73    1.10
   8   4 -12    6.26    1.21
  -8   4  12    6.92    1.24
   8   4 -12    8.09    1.32
  -6  -4  12    0.59    0.55
   6  -4 -12    0.79    0.38
   6  -4 -12    0.14    0.35
   6  -4 -12    0.31    0.60
  -6  -4  12    1.97    0.60
   6   4 -12    0.10    0.62
   6   4 -12    0.42    0.64
   4  -4 -12   39.91    3.26
  -4  -4  12   35.79    2.90
  -4  -4  12   37.84    3.03
   4   4 -12   32.79    3.12
   4   4 -12   35.50    3.03
  -2  -4  12    2.94    0.64
   2  -4 -12    3.66    0.82
  -2  -4  12    2.28    0.60
   2   4 -12    3.37    0.79
   2   4 -12    3.62    0.79
   2   4 -12    2.65    0.70
   0  -4  12   62.90    4.93
   0  -4  12   72.61    5.15
   0  -4 -12   67.04    5.44
   0   4 -12   69.85    5.05
   0   4 -12   76.30    5.31
   0   4 -12   64.31    5.18
  -2  -4 -12    0.06    0.61
   2  -4  12    0.43    0.37
   2  -4  12    0.79    0.38
  -2  -4 -12    0.19    0.51
  -2   4 -12    1.05    0.44
  -2   4 -12    0.71    0.47
  -2   4 -12    1.10    0.46
   4  -4  12   55.55    3.98
  -4  -4 -12   54.39    4.36
  -4  -4 -12   49.98    4.25
  -4   4 -12   50.67    4.05
  -4   4 -12   52.23    4.05
  -4   4 -12   55.79    3.95
  -6  -4 -12    1.45    0.58
   6  -4  12    2.09    0.46
  -6  -4 -12    0.85    0.58
  -6   4 -12    1.39    0.53
  -6   4 -12    0.12    0.41
  -6   4 -12    0.09    0.49
  -8  -4 -12    6.23    1.08
  -8  -4 -12    5.28    1.04
   8  -4  12    5.39    0.79
  -8   4 -12    7.67    1.04
  -8   4 -12    7.06    1.17
  -8   4 -12    6.60    0.96
   7  -5 -12   -0.35    0.32
   7  -5 -12   -0.13    0.60
  -7  -5  12    0.87    0.56
  -7  -5  12    0.81    0.56
   7   5 -12    0.72    0.74
   7   5 -12    0.61    0.73
  -5  -5  12    2.25    0.65
  -5  -5  12    1.39    0.53
   5  -5 -12    1.64    0.76
   5   5 -12    1.69    0.82
   5   5 -12    1.67    0.71
  -3  -5  12    1.74    0.54
  -3  -5  12    1.49    0.55
   3  -5 -12    2.90    0.80
   3   5 -12    4.27    0.91
   3   5 -12    3.26    0.86
  -1  -5  12    4.32    0.76
  -1  -5  12    3.65    0.68
   1  -5 -12    3.85    0.87
   1   5 -12    4.86    0.88
   1   5 -12    3.52    0.85
   1   5 -12    3.71    0.81
   1  -5  12    0.38    0.36
  -1  -5 -12   -0.53    0.44
   1  -5  12   -0.21    0.33
  -1  -5 -12   -0.04    0.54
  -1   5 -12    0.18    0.46
  -1   5 -12   -0.01    0.39
  -3  -5 -12    0.06    0.49
   3  -5  12    1.79    0.44
  -3  -5 -12    1.55    0.78
   3  -5  12    0.50    0.35
  -3   5 -12    1.43    0.54
  -3   5 -12    0.43    0.46
   5  -5  12   -0.08    0.28
  -5  -5 -12    0.18    0.71
  -5  -5 -12    0.80    0.52
  -5   5 -12    0.95    0.47
  -5   5 -12    0.68    0.51
  -5   5 -12   -0.27    0.44
  -7  -5 -12   -0.44    0.55
  -7  -5 -12    0.12    0.50
   7  -5  12    0.01    0.33
  -7   5 -12    0.69    0.52
  -7   5 -12    0.52    0.60
  -7   5 -12   -0.50    0.52
  -7   5 -12    0.16    0.51
  -6  -6  12   19.79    1.97
   6  -6 -12   19.92    2.19
   6   6 -12   16.20    2.21
   6   6 -12   19.28    2.23
  -4  -6  12   -0.17    0.43
   4  -6 -12    1.06    0.68
  -4  -6  12    0.45    0.47
   4   6 -12    0.10    0.63
   4   6 -12    0.65    0.71
  -2  -6  12   17.52    1.64
  -2  -6  12   14.86    1.59
   2  -6 -12   13.61    1.81
   2   6 -12   13.86    1.80
   2   6 -12   16.93    1.89
   0  -6  12    0.56    0.41
   0  -6 -12    0.47    0.57
   0  -6  12    1.05    0.45
   0  -6 -12    0.62    0.70
   0   6 -12    0.00    0.49
   0   6 -12    0.50    0.52
   2  -6  12   39.99    3.29
  -2  -6 -12   37.95    3.58
  -2  -6 -12   49.67    3.81
   2  -6  12   45.46    3.23
  -2   6 -12   42.60    3.38
  -2   6 -12   45.19    3.56
   4  -6  12    0.91    0.38
   4  -6  12    1.07    0.39
  -4  -6 -12    0.52    0.71
  -4  -6 -12    1.83    0.64
  -4   6 -12    0.90    0.59
  -4   6 -12    0.95    0.55
   6  -6  12   23.43    1.99
  -6  -6 -12   21.40    2.39
  -6   6 -12   24.20    2.48
  -6   6 -12   27.58    2.25
  -6   6 -12   26.32    2.32
   5  -7 -12    0.27    0.65
  -5  -7  12    0.50    0.47
  -5  -7  12   -0.53    0.40
   5   7 -12    0.68    0.80
   5   7 -12   -0.22    0.66
   3  -7 -12    0.11    0.61
  -3  -7  12   -0.17    0.37
  -3  -7  12   -0.27    0.42
   3   7 -12   -0.90    0.51
   3   7 -12   -0.75    0.60
  -1  -7  12    1.74    0.51
   1  -7 -12    2.21    0.79
  -1  -7  12    0.95    0.48
   1   7 -12    1.87    0.80
   1   7 -12    0.96    0.65
   1  -7  12    0.88    0.45
  -1  -7 -12    0.73    0.60
  -1  -7 -12   -0.06    0.64
   1  -7  12    0.49    0.37
  -1   7 -12    0.72    0.57
  -1   7 -12    0.73    0.60
  -3  -7 -12   -1.04    0.62
  -3  -7 -12   -0.42    0.48
   3  -7  12   -0.26    0.29
   3  -7  12    0.12    0.28
  -3   7 -12   -0.15    0.54
  -3   7 -12    1.84    0.62
   5  -7  12    0.03    0.30
  -5  -7 -12    0.79    0.60
  -5  -7 -12    1.03    0.87
   5  -7  12    0.05    0.32
  -5   7 -12    0.58    0.55
  -5   7 -12    0.41    0.60
  -5   7 -12    0.40    0.58
  -4  -8  12   10.92    1.27
   4  -8 -12    7.85    1.39
   4   8 -12    7.46    1.42
   4   8 -12   11.99    1.80
  -2  -8  12   -0.18    0.40
  -2  -8  12    0.27    0.39
   2  -8 -12    0.70    0.71
  -2  -8  12    0.31    0.61
   2   8 -12    1.07    0.75
   2   8 -12   -0.76    0.61
   0  -8 -12   17.05    2.14
   0  -8  12   18.04    1.66
   0  -8 -12   21.70    2.43
   0   8 -12   21.37    2.25
   0   8 -12   20.03    2.28
   2  -8  12    0.91    0.42
  -2  -8 -12    1.11    0.62
   2  -8  12    1.73    0.47
  -2  -8 -12    1.81    0.89
  -2   8 -12    1.03    0.74
  -2   8 -12    0.57    0.59
  -4  -8 -12   14.95    2.10
   4  -8  12   13.78    1.43
   4  -8  12   16.51    1.42
  -4  -8 -12   14.81    1.82
  -4   8 -12   15.38    1.80
  -4   8 -12   16.30    1.92
  -3  -9  12   -0.56    0.39
  -3  -9  12   -0.17    0.38
   3  -9 -12   -0.08    0.72
   3   9 -12   -0.22    0.70
   3   9 -12    0.68    0.76
   1  -9 -12   -0.39    0.61
  -1  -9  12    0.44    0.41
  -1  -9  12    0.58    0.40
   1  -9 -12    0.31    0.79
   1   9 -12    0.96    0.82
   1   9 -12   -0.22    0.67
   1  -9  12    0.10    0.35
   1  -9  12    0.14    0.34
  -1  -9 -12    0.26    0.84
  -1  -9 -12    0.44    0.61
  -1   9 -12   -0.33    0.59
  -1   9 -12    0.12    0.69
   3  -9  12    1.52    0.44
  -3  -9 -12    0.75    0.62
   3  -9  12    0.81    0.40
  -3  -9 -12    1.19    0.96
  -3   9 -12    1.12    0.70
  -3   9 -12    0.60    0.76
   8   0 -13    0.09    0.46
  -8   0  13   -0.03    0.56
   8   0 -13   -0.10    0.43
  -8   0  13   -0.54    0.55
  -6   0  13   -0.06    0.48
   6   0 -13   -0.44    0.41
   6   0 -13    0.14    0.44
   4   0 -13   -0.12    0.37
   4   0 -13   -0.62    0.51
  -4   0  13    0.37    0.48
   4   0 -13    0.13    0.35
   2   0 -13    0.12    0.31
   2   0 -13    1.21    0.57
   2   0 -13    0.16    0.35
  -2   0  13   -0.12    0.43
   0   0 -13    3.28    0.47
   0   0  13    3.70    0.65
   0   0 -13    6.60    0.86
   0   0 -13    1.62    0.37
   0   0 -13    5.01    0.85
  -2   0 -13    0.22    0.49
  -2   0 -13   -0.04    0.47
  -4   0 -13    0.49    0.47
  -6   0 -13   -0.06    0.38
  -6   0 -13    0.13    0.40
  -8   0 -13   -0.18    0.45
  -7  -1  13    0.53    0.50
   7  -1 -13   -0.38    0.37
  -7  -1  13    0.27    0.56
   7  -1 -13   -0.61    0.38
   7   1 -13    0.18    0.48
   7   1 -13   -0.15    0.47
  -7   1  13   -0.84    0.47
  -5  -1  13   -0.06    0.41
  -5  -1  13    0.62    0.54
   5  -1 -13    0.45    0.40
   5  -1 -13    0.38    0.40
   5   1 -13    0.60    0.49
  -5   1  13    0.44    0.51
   5   1 -13    0.77    0.52
   3  -1 -13    7.61    0.83
   3  -1 -13    5.49    1.13
  -3  -1  13    7.78    1.08
   3  -1 -13    6.44    0.84
   3   1 -13    6.21    0.92
   3   1 -13    7.21    0.98
  -3   1  13    7.92    1.04
   3   1 -13    5.93    1.10
   1  -1 -13    1.82    0.66
   1  -1 -13    1.93    0.36
  -1  -1  13    2.07    0.59
   1   1 -13    1.98    0.66
   1   1 -13    2.14    0.51
   1   1 -13    2.10    0.69
   1   1 -13    2.38    0.52
  -1  -1 -13    0.59    0.58
   1  -1  13    0.53    0.41
  -1  -1 -13    0.26    0.50
  -1   1 -13   -0.05    0.46
  -1   1 -13    0.36    0.30
  -1   1 -13    0.42    0.32
  -1   1 -13    0.27    0.50
  -3  -1 -13   -0.11    0.46
  -3  -1 -13    0.64    0.57
  -3   1 -13    1.49    0.55
  -3   1 -13    1.40    0.33
  -5  -1 -13   -0.07    0.37
  -5  -1 -13   -0.10    0.42
  -5   1 -13    0.12    0.36
  -5   1 -13    0.11    0.40
  -5   1 -13   -0.03    0.20
  -7  -1 -13    0.19    0.50
  -7  -1 -13   -0.27    0.40
  -7   1 -13   -0.03    0.40
  -7   1 -13   -0.32    0.41
   8  -2 -13    0.56    0.48
   8  -2 -13    0.35    0.43
  -8  -2  13   -0.77    0.44
  -8  -2  13   -0.80    0.50
  -8   2  13    0.34    0.65
   8   2 -13    0.29    0.60
   8   2 -13    0.22    0.52
   6  -2 -13    0.63    0.42
  -6  -2  13    0.23    0.52
  -6  -2  13    0.36    0.50
   6  -2 -13   -0.03    0.39
  -6   2  13    1.25    0.59
   6   2 -13   -0.09    0.48
   6   2 -13   -0.55    0.45
   4  -2 -13    0.87    0.37
  -4  -2  13    0.66    0.46
   4  -2 -13    0.62    0.58
   4  -2 -13    0.74    0.35
  -4  -2  13    0.28    0.48
   4   2 -13    0.39    0.48
   4   2 -13    0.57    0.47
  -4   2  13    0.70    0.47
   2  -2 -13    0.98    0.59
  -2  -2  13    1.49    0.52
  -2  -2  13    0.36    0.45
   2  -2 -13    1.65    0.32
   2   2 -13    0.34    0.55
   2   2 -13    0.92    0.48
   2   2 -13    1.44    0.52
   0  -2 -13    3.54    0.85
   0  -2 -13    4.97    0.97
   0  -2  13    4.05    0.75
   0   2 -13    3.87    0.67
   0   2 -13    2.95    0.61
   0   2 -13    3.47    0.79
  -2  -2 -13    0.96    0.57
  -2  -2 -13    0.70    0.62
   2  -2  13    0.80    0.43
  -2   2 -13    0.73    0.53
  -2   2 -13    0.41    0.35
  -2   2 -13    1.03    0.40
   4  -2  13    1.40    0.46
  -4  -2 -13    0.22    0.49
  -4  -2 -13    1.06    0.62
  -4   2 -13    0.97    0.42
  -4   2 -13    0.52    0.36
  -4   2 -13    1.17    0.37
  -4   2 -13    0.66    0.42
  -6  -2 -13    0.19    0.50
  -6  -2 -13   -0.53    0.41
  -6   2 -13    0.58    0.46
  -6   2 -13   -0.31    0.37
  -6   2 -13    0.35    0.31
  -8  -2 -13   -0.15    0.48
  -8  -2 -13    0.13    0.50
  -8   2 -13   -0.23    0.30
  -8   2 -13   -0.07    0.50
   7  -3 -13    0.10    0.42
  -7  -3  13    0.41    0.51
  -7  -3  13    0.79    0.58
   7  -3 -13    0.86    0.45
  -7   3  13    0.69    0.61
   7   3 -13    1.34    0.66
   7   3 -13   -0.09    0.51
   5  -3 -13    0.69    0.35
  -5  -3  13    0.64    0.55
   5  -3 -13    0.45    0.34
  -5  -3  13   -0.10    0.41
   5  -3 -13    0.40    0.60
   5   3 -13   -0.03    0.54
   5   3 -13    0.52    0.59
   3  -3 -13    0.47    0.58
  -3  -3  13    0.28    0.44
  -3  -3  13    0.20    0.46
   3   3 -13    0.56    0.50
   3   3 -13    0.04    0.45
   3   3 -13   -0.38    0.50
  -1  -3  13   -0.09    0.41
  -1  -3  13   -0.08    0.36
   1  -3 -13    0.54    0.55
   1   3 -13    0.64    0.43
   1   3 -13   -0.11    0.40
   1   3 -13   -0.09    0.50
   1  -3  13    0.89    0.42
  -1  -3 -13   -0.05    0.50
  -1  -3 -13    0.11    0.60
  -1   3 -13    0.36    0.41
  -1   3 -13    0.12    0.35
  -1   3 -13    0.77    0.55
   3  -3  13    4.11    0.66
  -3  -3 -13    4.50    0.90
  -3  -3 -13    3.49    0.90
  -3   3 -13    4.01    0.65
  -3   3 -13    3.05    0.68
  -3   3 -13    2.76    0.59
  -3   3 -13    1.85    0.56
  -5  -3 -13    0.83    0.57
   5  -3  13    0.35    0.36
  -5   3 -13   -0.13    0.36
  -5   3 -13    0.58    0.41
  -5   3 -13    0.62    0.46
  -5   3 -13    0.71    0.40
  -7  -3 -13   -0.21    0.46
  -7  -3 -13    0.08    0.50
  -7   3 -13    0.08    0.52
  -7   3 -13    0.02    0.43
  -7   3 -13   -0.06    0.37
  -6  -4  13    0.26    0.51
   6  -4 -13   -0.17    0.58
   6  -4 -13    0.77    0.37
  -6  -4  13    0.70    0.53
   6   4 -13    0.34    0.63
   6   4 -13    0.97    0.70
  -4  -4  13   -0.56    0.44
  -4  -4  13    0.16    0.42
   4  -4 -13   -0.04    0.54
   4   4 -13   -0.31    0.49
   4   4 -13   -0.87    0.47
  -2  -4  13    3.81    0.77
   2  -4 -13    3.13    0.85
  -2  -4  13    4.18    0.76
   2   4 -13    3.13    0.80
   2   4 -13    4.07    0.84
   2   4 -13    4.43    0.92
   0  -4  13    0.02    0.39
   0  -4 -13    0.14    0.61
   0  -4  13   -0.05    0.36
   0  -4 -13   -0.73    0.46
   0   4 -13    0.21    0.44
   0   4 -13   -0.62    0.35
   0   4 -13   -0.72    0.47
  -2  -4 -13   -0.34    0.49
  -2  -4 -13   -0.17    0.67
   2  -4  13    0.25    0.38
   2  -4  13   -0.01    0.33
  -2   4 -13    0.01    0.36
  -2   4 -13   -0.15    0.43
  -2   4 -13    0.09    0.43
  -2   4 -13   -0.21    0.40
   4  -4  13    1.28    0.47
  -4  -4 -13    3.49    0.80
  -4  -4 -13    2.78    0.90
  -4   4 -13    2.85    0.64
  -4   4 -13    2.43    0.62
  -4   4 -13    2.46    0.62
  -6  -4 -13    0.85    0.60
   6  -4  13    0.89    0.41
  -6   4 -13    0.62    0.46
  -6   4 -13    1.38    0.61
  -6   4 -13    0.23    0.49
  -6   4 -13    1.21    0.53
  -7  -5  13    1.53    0.68
   7  -5 -13    0.77    0.39
   7  -5 -13    1.82    0.86
  -7  -5  13    1.51    0.64
   7   5 -13    1.20    0.79
   7   5 -13    1.00    0.78
  -5  -5  13    0.20    0.47
   5  -5 -13    1.11    0.73
  -5  -5  13    1.35    0.64
   5   5 -13    0.97    0.68
   5   5 -13    0.62    0.73
   3  -5 -13    0.19    0.55
  -3  -5  13    0.59    0.51
  -3  -5  13    0.90    0.48
   3   5 -13    0.69    0.69
   3   5 -13    0.35    0.57
   3   5 -13    0.11    0.57
  -1  -5  13    1.07    0.53
  -1  -5  13    1.27    0.49
   1  -5 -13    0.45    0.62
   1   5 -13    1.20    0.63
   1   5 -13    0.28    0.55
   1   5 -13    1.82    0.71
  -1  -5 -13   -0.01    0.52
  -1  -5 -13    0.91    0.68
   1  -5  13   -0.56    0.35
   1  -5  13   -0.01    0.35
  -1   5 -13    0.09    0.47
  -1   5 -13   -0.42    0.43
  -3  -5 -13   -0.52    0.48
   3  -5  13    0.41    0.35
   3  -5  13   -0.38    0.33
  -3  -5 -13    0.16    0.68
  -3   5 -13   -0.63    0.46
  -3   5 -13    0.11    0.48
  -3   5 -13    0.18    0.42
  -5  -5 -13   -0.39    0.69
   5  -5  13    0.13    0.34
  -5  -5 -13    1.91    0.68
  -5   5 -13    0.46    0.53
  -5   5 -13    0.74    0.57
  -5   5 -13    1.46    0.56
   7  -5  13   -0.23    0.33
  -7  -5 -13    0.05    0.55
  -7   5 -13    0.26    0.53
  -7   5 -13   -0.04    0.56
  -7   5 -13    0.18    0.58
  -7   5 -13    0.65    0.49
  -6  -6  13    1.29    0.59
   6  -6 -13    1.18    0.81
  -6  -6  13    1.94    0.67
   6   6 -13    2.14    0.89
   6   6 -13    1.78    0.89
   4  -6 -13    1.65    0.74
  -4  -6  13    1.63    0.58
  -4  -6  13    0.44    0.52
   4   6 -13    1.93    0.81
   4   6 -13    2.66    0.90
  -2  -6  13    2.88    0.68
   2  -6 -13    0.66    0.73
  -2  -6  13    1.56    0.56
   2   6 -13    2.68    0.81
   2   6 -13    2.33    0.82
   0  -6  13    2.61    0.63
   0  -6  13    2.69    0.67
   0  -6 -13    3.02    0.85
   0  -6 -13    4.00    1.06
   0   6 -13    1.70    0.72
   0   6 -13    1.08    0.62
  -2  -6 -13    0.57    0.61
   2  -6  13   -0.48    0.31
  -2  -6 -13   -0.01    0.71
   2  -6  13   -0.16    0.34
  -2   6 -13   -0.36    0.50
  -2   6 -13   -0.34    0.47
  -4  -6 -13    0.35    0.57
   4  -6  13    0.55    0.37
  -4  -6 -13    1.33    0.88
   4  -6  13    0.27    0.34
  -4   6 -13    1.27    0.64
  -4   6 -13    0.67    0.53
  -4   6 -13    0.44    0.53
  -6  -6 -13    1.64    0.70
   6  -6  13    1.01    0.42
  -6   6 -13    1.41    0.62
  -6   6 -13    0.70    0.65
  -6   6 -13    1.01    0.68
  -5  -7  13    0.95    0.56
   5  -7 -13    0.53    0.71
  -5  -7  13    0.31    0.52
   5   7 -13    1.28    0.86
   5   7 -13    2.17    0.91
  -3  -7  13    0.48    0.52
  -3  -7  13    0.28    0.47
   3  -7 -13    0.80    0.77
   3   7 -13   -0.85    0.62
   3   7 -13    0.26    0.63
   1  -7 -13    1.25    0.76
  -1  -7  13    1.76    0.54
  -1  -7  13    0.41    0.46
   1   7 -13    1.69    0.79
   1   7 -13    0.21    0.63
   1  -7  13    0.07    0.36
  -1  -7 -13    0.11    0.65
  -1  -7 -13    0.58    0.73
   1  -7  13    0.97    0.46
  -1   7 -13    1.13    0.71
  -1   7 -13    1.21    0.63
   3  -7  13   -0.20    0.30
  -3  -7 -13    0.68    0.81
   3  -7  13    0.26    0.36
  -3  -7 -13   -1.17    0.43
  -3   7 -13   -0.41    0.55
  -3   7 -13    0.18    0.55
  -5  -7 -13    1.33    0.71
  -5  -7 -13    1.23    0.91
   5  -7  13    1.65    0.46
   5  -7  13    0.16    0.34
  -5   7 -13    0.58    0.67
  -5   7 -13    0.17    0.61
  -5   7 -13    0.40    0.62
  -2  -8  13    2.77    0.66
   2  -8 -13    3.50    0.98
  -2  -8  13    3.08    0.71
   2   8 -13    2.79    1.02
   2   8 -13    2.92    0.93
   0  -8  13    0.96    0.46
   0  -8 -13    0.23    0.70
   0  -8  13    1.55    0.50
   0  -8 -13    0.66    0.84
   0   8 -13    1.78    0.81
   0   8 -13    1.25    0.75
  -2  -8 -13    2.18    0.81
   2  -8  13    2.47    0.55
   2  -8  13    2.07    0.54
  -2  -8 -13    4.06    1.16
  -2   8 -13    1.57    0.81
  -2   8 -13    3.57    0.92
   6   0 -14   11.20    1.39
  -6   0  14   13.23    1.62
   6   0 -14   12.99    1.43
  -4   0  14    2.77    0.75
   4   0 -14    1.80    0.53
   4   0 -14    2.85    0.62
   4   0 -14    2.68    0.80
   2   0 -14   40.11    3.01
   2   0 -14   38.94    3.42
   2   0 -14   38.87    2.96
  -2   0  14   40.73    3.25
   0   0 -14    7.92    1.09
   0   0 -14    7.60    1.17
   0   0 -14    5.71    0.69
  -2   0 -14   32.07    3.04
  -2   0 -14   38.58    2.97
  -4   0 -14    0.64    0.51
  -6   0 -14    5.11    0.90
   7  -1 -14   -0.03    0.46
  -7  -1  14    0.88    0.69
  -7  -1  14    0.74    0.58
   7  -1 -14    0.15    0.46
   7   1 -14    0.86    0.57
   7   1 -14    0.46    0.51
  -7   1  14    1.91    0.74
   5  -1 -14    0.08    0.60
   5  -1 -14    0.20    0.41
  -5  -1  14   -0.03    0.52
   5  -1 -14    0.33    0.39
  -5   1  14   -0.67    0.48
   5   1 -14   -0.11    0.38
   5   1 -14    0.57    0.46
   3  -1 -14    1.73    0.40
   3  -1 -14    1.37    0.69
  -3  -1  14    1.52    0.62
   3  -1 -14    1.53    0.42
   3   1 -14    0.53    0.41
  -3   1  14    0.98    0.56
   3   1 -14    1.19    0.48
   3   1 -14    1.37    0.67
  -1  -1  14    7.01    1.00
   1  -1 -14    5.78    0.61
   1  -1 -14    5.82    1.05
   1   1 -14    5.14    1.00
   1   1 -14    5.20    0.77
   1   1 -14    6.21    0.98
   1   1 -14    4.70    0.75
  -1  -1 -14    3.89    0.90
   1  -1  14    2.73    0.64
  -1  -1 -14    2.48    0.78
  -1   1 -14    2.97    0.47
  -1   1 -14    3.73    0.73
  -1   1 -14    2.96    0.84
  -1   1 -14    1.87    0.46
  -3  -1 -14    2.63    0.76
  -3  -1 -14    3.21    0.80
  -3   1 -14    1.74    0.36
  -3   1 -14    3.11    0.77
  -5  -1 -14    0.66    0.54
  -5   1 -14    0.25    0.47
  -7  -1 -14    0.44    0.50
  -7   1 -14   -0.06    0.42
  -7   1 -14   -0.21    0.45
   6  -2 -14    1.45    0.49
  -6  -2  14    1.18    0.60
  -6  -2  14    2.08    0.74
   6  -2 -14    0.46    0.45
   6  -2 -14    2.20    0.85
  -6   2  14    0.65    0.66
   6   2 -14    1.18    0.61
   6   2 -14    0.51    0.55
  -4  -2  14    7.86    1.17
   4  -2 -14    7.11    1.33
  -4  -2  14   10.58    1.37
   4  -2 -14    9.51    1.00
   4  -2 -14   13.05    0.97
   4   2 -14    8.91    1.36
   4   2 -14    8.18    1.19
   4   2 -14    7.11    1.17
  -2  -2  14    1.17    0.58
   2  -2 -14    1.30    0.65
   2   2 -14    0.53    0.47
   2   2 -14    0.69    0.44
   2   2 -14    0.54    0.59
   0  -2  14   51.37    4.17
   0  -2 -14   65.55    4.46
   0  -2 -14   59.94    4.55
   0   2 -14   56.75    4.40
   0   2 -14   51.34    4.06
   0   2 -14   47.88    3.93
  -2  -2 -14    1.23    0.65
   2  -2  14    1.13    0.49
  -2  -2 -14    1.10    0.68
  -2   2 -14    0.32    0.35
  -2   2 -14    0.46    0.38
  -2   2 -14    0.65    0.56
  -4  -2 -14   14.26    1.88
  -4  -2 -14   16.00    1.98
  -4   2 -14   17.96    1.50
  -4   2 -14   21.32    1.52
  -4   2 -14   18.30    1.53
  -4   2 -14   18.64    1.74
  -6  -2 -14    3.62    0.83
  -6   2 -14    4.30    0.73
  -6   2 -14    2.69    0.69
  -6   2 -14    2.56    0.48
   7  -3 -14   -1.08    0.58
  -7  -3  14   -0.58    0.45
  -7  -3  14   -0.26    0.50
   7  -3 -14   -0.19    0.38
   7  -3 -14    0.06    0.43
   7   3 -14   -0.34    0.54
   7   3 -14   -0.03    0.60
  -5  -3  14   -0.29    0.46
   5  -3 -14    0.14    0.62
   5  -3 -14    0.11    0.32
  -5  -3  14    0.66    0.57
   5   3 -14   -0.40    0.46
   5   3 -14   -0.22    0.48
  -3  -3  14   -0.24    0.41
  -3  -3  14    0.32    0.51
   3  -3 -14   -0.13    0.55
   3   3 -14    0.83    0.60
   3   3 -14    0.39    0.46
   3   3 -14   -0.95    0.36
   1  -3 -14    5.05    1.05
  -1  -3  14    6.38    1.02
   1   3 -14    6.15    0.93
   1   3 -14    6.20    0.97
   1   3 -14    6.62    1.10
  -1  -3 -14    8.52    1.36
  -1  -3 -14    6.59    1.23
   1  -3  14    8.48    1.06
  -1   3 -14    6.79    1.00
  -1   3 -14    7.65    0.98
  -1   3 -14    9.02    1.23
   3  -3  14    1.48    0.50
  -3  -3 -14    1.55    0.67
  -3  -3 -14    1.20    0.80
  -3   3 -14    1.16    0.46
  -3   3 -14    1.29    0.49
  -3   3 -14    1.04    0.56
  -5  -3 -14    0.88    0.61
  -5   3 -14    0.74    0.44
  -5   3 -14   -0.17    0.44
  -5   3 -14    0.08    0.39
  -5   3 -14    0.49    0.43
  -7  -3 -14   -0.05    0.54
  -7   3 -14    0.39    0.56
  -7   3 -14    0.17    0.39
   6  -4 -14    7.08    0.76
   6  -4 -14    4.87    1.15
  -6  -4  14    8.03    1.15
  -6  -4  14    5.32    1.04
   6   4 -14    5.27    1.09
   6   4 -14    4.44    1.05
  -4  -4  14    0.02    0.48
  -4  -4  14   -0.34    0.44
   4  -4 -14   -0.06    0.61
   4   4 -14    1.01    0.63
   4   4 -14   -0.25    0.55
  -2  -4  14   16.67    1.69
   2  -4 -14   15.60    1.91
  -2  -4  14   15.93    1.62
   2   4 -14   13.88    1.70
   2   4 -14   11.69    1.56
   2   4 -14   14.95    1.80
   0  -4 -14    0.10    0.57
   0  -4  14    0.01    0.42
   0  -4 -14    0.20    0.66
   0  -4  14   -0.15    0.34
   0   4 -14    0.31    0.61
   0   4 -14   -0.33    0.42
   0   4 -14    0.01    0.45
  -2  -4 -14   26.20    2.89
  -2  -4 -14   30.54    2.78
   2  -4  14   29.16    2.43
  -2   4 -14   30.75    2.41
  -2   4 -14   26.86    2.42
  -4  -4 -14    2.30    0.98
   4  -4  14    3.33    0.63
  -4  -4 -14    4.42    0.96
  -4   4 -14    3.71    0.73
  -4   4 -14    2.81    0.68
  -4   4 -14    3.22    0.69
  -6  -4 -14    6.79    1.19
   6  -4  14    6.07    0.86
  -6   4 -14    6.27    0.95
  -6   4 -14    7.30    1.12
  -6   4 -14    6.60    0.96
  -6   4 -14    8.41    1.03
  -5  -5  14    1.50    0.61
   5  -5 -14    1.62    0.83
  -5  -5  14    1.53    0.66
   5   5 -14    1.71    0.79
   5   5 -14    1.00    0.74
  -3  -5  14    1.24    0.62
   3  -5 -14    0.23    0.61
  -3  -5  14    0.78    0.51
   3   5 -14    1.82    0.79
   3   5 -14    1.41    0.73
   3   5 -14    0.74    0.64
  -1  -5  14   -0.31    0.43
   1  -5 -14   -0.04    0.62
  -1  -5  14   -0.37    0.41
   1   5 -14   -0.36    0.48
   1   5 -14   -0.37    0.57
   1   5 -14   -0.11    0.54
  -1  -5 -14    3.07    0.89
   1  -5  14    3.37    0.71
   1  -5  14    2.81    0.64
  -1  -5 -14    5.09    1.14
  -1   5 -14    4.79    0.91
  -1   5 -14    2.32    0.69
  -3  -5 -14    0.26    0.61
  -3  -5 -14    0.71    0.81
   3  -5  14    0.82    0.45
  -3   5 -14    0.14    0.48
  -3   5 -14    0.21    0.53
  -3   5 -14   -0.63    0.41
  -5  -5 -14    0.17    0.58
  -5  -5 -14   -0.38    0.77
   5  -5  14    0.05    0.36
  -5   5 -14   -0.91    0.46
  -5   5 -14   -0.61    0.52
  -5   5 -14   -0.80    0.40
  -4  -6  14    9.51    1.30
   4  -6 -14    9.48    1.53
   4   6 -14   11.63    1.65
   4   6 -14   11.37    1.55
   2  -6 -14    0.34    0.69
  -2  -6  14    0.95    0.52
  -2  -6  14    0.75    0.50
   2   6 -14    0.46    0.65
   2   6 -14    0.48    0.64
   0  -6 -14   14.17    1.91
   0  -6 -14   16.27    2.03
   0  -6  14   13.55    1.60
   0  -6  14   14.58    1.62
   0   6 -14   18.63    1.91
   0   6 -14   15.32    1.83
   2  -6  14   -0.46    0.34
  -2  -6 -14    0.85    0.80
   2  -6  14    0.57    0.46
  -2  -6 -14   -0.47    0.59
  -2   6 -14   -0.06    0.53
  -2   6 -14    0.04    0.59
  -4  -6 -14    5.63    1.16
   4  -6  14    6.02    0.90
  -4  -6 -14    9.06    1.57
  -4   6 -14    7.33    1.14
  -4   6 -14    8.19    1.20
  -4   6 -14    7.17    1.09
  -3  -7  14    0.09    0.42
   3  -7 -14    0.29    0.77
  -3  -7  14    0.26    0.53
   3   7 -14    0.14    0.67
   3   7 -14    0.18    0.69
   1  -7 -14    0.70    0.74
  -1  -7  14    1.17    0.53
  -1  -7  14    0.68    0.51
   1  -7 -14    1.33    0.96
   1   7 -14    1.70    0.80
   1   7 -14    1.21    0.74
   1  -7  14    1.47    0.52
   1  -7  14    0.77    0.48
  -1  -7 -14    1.57    0.79
  -1  -7 -14    0.06    0.83
  -1   7 -14    1.36    0.69
  -1   7 -14    0.36    0.64
  -3  -7 -14    1.66    0.73
  -3  -7 -14    1.97    1.04
   3  -7  14    1.65    0.51
   3  -7  14    0.86    0.45
  -3   7 -14   -0.50    0.57
  -3   7 -14    0.90    0.72
   0  -8  14    0.39    0.45
   0  -8  14    0.83    0.46
   0  -8 -14    0.13    0.78
   0  -8 -14   -0.68    0.71
   0   8 -14   -0.03    0.65
   6   0 -15   -0.25    0.63
   6   0 -15    0.20    0.43
   6   0 -15   -0.03    0.43
  -6   0  15   -1.30    0.50
  -4   0  15   -0.14    0.54
   4   0 -15   -0.06    0.37
   4   0 -15    0.02    0.64
   4   0 -15   -0.02    0.39
   2   0 -15   -0.05    0.35
   2   0 -15    0.20    0.33
   2   0 -15   -0.56    0.50
   0   0 -15    3.56    0.89
   0   0 -15    3.68    0.91
  -2   0 -15    0.26    0.55
  -2   0 -15   -0.07    0.57
  -4   0 -15    0.24    0.53
  -6   0 -15   -0.10    0.49
  -5  -1  15   -0.47    0.55
   5  -1 -15   -0.46    0.36
   5  -1 -15    0.08    0.58
   5  -1 -15   -0.07    0.38
   5   1 -15   -0.08    0.45
   5   1 -15    0.40    0.68
   5   1 -15    0.46    0.50
  -5   1  15    0.56    0.61
  -3  -1  15    0.04    0.53
   3  -1 -15    0.38    0.62
   3  -1 -15   -0.41    0.31
   3  -1 -15    0.12    0.31
   3   1 -15    0.05    0.39
   3   1 -15    0.29    0.40
   3   1 -15   -0.14    0.55
   1  -1 -15    2.29    0.90
  -1  -1  15    3.41    0.76
   1  -1 -15    2.32    0.81
   1   1 -15    2.41    0.53
   1   1 -15    1.49    0.47
   1   1 -15    1.19    0.70
  -1  -1 -15    0.61    0.67
  -1  -1 -15    0.69    0.76
  -1   1 -15    1.89    0.75
  -1   1 -15    1.26    0.40
  -3  -1 -15    0.51    0.64
  -3  -1 -15    0.11    0.55
  -3   1 -15    0.10    0.23
  -3   1 -15    0.20    0.57
  -5  -1 -15    0.78    0.60
  -5   1 -15    0.90    0.59
   6  -2 -15    1.27    0.77
   6  -2 -15    1.00    0.47
   6  -2 -15    1.72    0.50
  -6  -2  15    0.16    0.63
   6   2 -15    0.76    0.58
   6   2 -15    1.02    0.63
   4  -2 -15    0.35    0.34
  -4  -2  15    0.33    0.56
   4  -2 -15   -0.28    0.64
   4   2 -15    0.55    0.50
   4   2 -15   -0.06    0.59
   4   2 -15    0.15    0.46
   2  -2 -15   -0.59    0.53
  -2  -2  15    1.43    0.60
   2   2 -15   -0.40    0.55
   2   2 -15    0.57    0.43
   2   2 -15    0.89    0.46
   0  -2 -15    1.06    0.65
   0  -2 -15   -0.46    0.65
   0  -2  15   -0.26    0.48
   0   2 -15    0.48    0.40
   0   2 -15    0.44    0.63
   0   2 -15   -0.55    0.32
  -2  -2 -15   -0.09    0.74
  -2  -2 -15    1.22    0.70
  -2   2 -15    0.29    0.35
  -2   2 -15   -0.14    0.33
  -2   2 -15    1.09    0.66
  -4  -2 -15   -0.87    0.61
  -4  -2 -15   -0.17    0.51
  -4   2 -15    0.03    0.31
  -4   2 -15   -0.02    0.48
  -6  -2 -15    0.25    0.59
  -6   2 -15    2.28    0.63
   5  -3 -15   -0.16    0.63
  -5  -3  15    0.14    0.65
  -5  -3  15    1.98    0.69
   5  -3 -15    1.97    0.42
   5   3 -15    1.07    0.64
   5   3 -15    0.41    0.59
  -3  -3  15    1.34    0.63
   3  -3 -15    0.48    0.65
   3   3 -15    0.36    0.66
   3   3 -15    0.99    0.58
   3   3 -15    1.91    0.62
   1  -3 -15    1.55    0.78
   1  -3 -15    1.52    0.84
  -1  -3  15    1.38    0.58
   1   3 -15    1.22    0.59
   1   3 -15    0.65    0.49
   1   3 -15    2.12    0.80
  -1  -3 -15    0.95    0.78
   1  -3  15    0.68    0.54
  -1  -3 -15   -0.10    0.60
  -1   3 -15    1.30    0.69
  -1   3 -15    1.19    0.53
  -1   3 -15    0.65    0.46
  -3  -3 -15   -0.34    0.54
  -3  -3 -15   -0.07    0.77
   3  -3  15    0.14    0.41
  -3   3 -15   -0.45    0.50
  -3   3 -15    0.27    0.41
  -3   3 -15    0.29    0.42
  -5  -3 -15   -0.26    0.52
  -5   3 -15    1.03    0.41
  -5   3 -15   -0.04    0.41
  -4  -4  15    1.16    0.59
   4  -4 -15    1.40    0.81
  -4  -4  15    2.40    0.76
   4   4 -15    2.88    0.92
   4   4 -15    1.82    0.74
   4   4 -15    1.94    0.77
  -2  -4  15    0.13    0.48
  -2  -4  15    0.03    0.49
   2  -4 -15    0.42    0.69
   2   4 -15    0.08    0.49
   2   4 -15    0.33    0.53
   2   4 -15    0.46    0.68
   0  -4  15    1.36    0.56
   0  -4 -15    1.73    0.88
   0  -4 -15    1.56    0.79
   0   4 -15    1.97    0.61
   0   4 -15    1.34    0.75
   0   4 -15    1.29    0.57
  -2  -4 -15    1.51    0.86
  -2  -4 -15    1.41    0.76
   2  -4  15    1.67    0.57
  -2   4 -15    0.82    0.53
  -2   4 -15    1.26    0.57
  -4  -4 -15    0.62    0.60
  -4  -4 -15    0.24    0.84
   4  -4  15    0.84    0.47
  -4   4 -15   -0.01    0.47
  -4   4 -15   -0.29    0.40
  -3  -5  15    1.17    0.64
  -3  -5  15    1.26    0.59
   3  -5 -15    1.46    0.83
   3   5 -15    1.74    0.74
   3   5 -15    0.80    0.66
   3   5 -15    2.59    0.92
  -1  -5  15    0.72    0.52
   1  -5 -15    0.79    0.91
   1  -5 -15    0.28    0.72
  -1  -5  15    1.23    0.60
   1   5 -15    0.51    0.60
   1   5 -15    0.66    0.57
  -1  -5 -15   -0.82    0.58
   1  -5  15   -0.77    0.41
  -1  -5 -15   -0.73    0.77
  -1   5 -15   -0.09    0.53
  -1   5 -15   -0.03    0.45
  -3  -5 -15    2.68    1.10
   3  -5  15    0.53    0.48
  -3  -5 -15    1.44    0.75
  -3   5 -15    1.96    0.68
  -3   5 -15    0.05    0.51
  -2  -6  15    0.76    0.54
   2  -6 -15    2.12    0.89
  -2  -6  15    0.49    0.52
   2   6 -15    0.36    0.67
   2   6 -15    1.18    0.69
   0  -6  15    3.01    0.72
   0  -6  15    1.27    0.57
   0  -6 -15    1.93    0.85
   0  -6 -15    2.94    1.05
   0   6 -15    1.81    0.71
   0   6 -15    2.08    0.73
   2  -6  15    0.90    0.53
  -2  -6 -15    1.06    0.79
  -2  -6 -15    1.24    0.99
  -2   6 -15    1.32    0.63
  -2   6 -15    0.94    0.67
  -1  -7  15   -0.21    0.45
   1  -7  15    0.31    0.47
   4   0 -16   18.48    1.62
   4   0 -16   17.02    1.70
   4   0 -16   14.33    2.01
  -4   0  16   23.37    2.22
   2   0 -16    0.65    0.34
   2   0 -16    0.20    0.34
   2   0 -16    0.02    0.80
   2   0 -16    0.28    0.63
   0   0 -16   23.44    1.84
   0   0 -16   30.75    2.54
   0   0 -16   28.87    2.85
  -2   0 -16    5.26    1.15
  -2   0 -16    6.88    1.17
  -4   0 -16   13.86    1.77
   5  -1 -16    0.53    0.44
   5  -1 -16    0.32    0.41
   5  -1 -16   -0.30    0.64
  -5  -1  16    0.40    0.71
   5   1 -16    0.27    0.61
   5   1 -16   -0.23    0.43
   5   1 -16   -0.13    0.45
   3  -1 -16   -0.13    0.32
   3  -1 -16    0.44    0.66
  -3  -1  16    2.01    0.72
   3   1 -16    0.73    0.49
   3   1 -16    0.54    0.69
   3   1 -16    0.37    0.43
   1  -1 -16    1.29    0.77
   1  -1 -16    2.09    0.92
   1   1 -16    0.97    0.42
   1   1 -16    1.16    0.45
   1   1 -16   -0.10    0.70
  -1  -1 -16    1.65    0.91
  -1  -1 -16    0.58    0.68
  -1   1 -16    0.82    0.35
  -1   1 -16    2.12    0.85
  -3  -1 -16    0.13    0.71
  -3  -1 -16   -0.61    0.56
  -3   1 -16    0.69    0.64
  -5  -1 -16    0.02    0.60
  -5   1 -16    0.08    0.56
  -4  -2  16    0.01    0.62
   4  -2 -16    0.13    0.31
   4  -2 -16    1.15    0.75
   4   2 -16   -0.34    0.60
   4   2 -16   -0.41    0.46
   4   2 -16    0.02    0.48
  -2  -2  16   21.30    2.19
   2  -2 -16   18.21    2.34
   2   2 -16   25.54    2.50
   2   2 -16   18.68    1.96
   2   2 -16   21.89    1.88
   0  -2  16    0.23    0.54
   0  -2 -16    0.37    0.72
   0  -2 -16    0.03    0.72
   0   2 -16    0.54    0.41
   0   2 -16    0.10    0.63
   0   2 -16    0.31    0.42
  -2  -2 -16   21.12    2.21
  -2  -2 -16   15.42    2.03
  -2   2 -16   15.23    1.37
  -2   2 -16   16.34    1.42
  -2   2 -16   20.74    2.10
  -4  -2 -16    1.20    0.72
  -4   2 -16    1.50    0.64
  -4   2 -16    0.82    0.34
  -3  -3  16   -0.60    0.52
   3  -3 -16   -0.38    0.60
   3   3 -16   -0.77    0.43
   3   3 -16    0.63    0.73
   3   3 -16    0.76    0.53
   1  -3 -16    1.06    0.84
  -1  -3  16    0.54    0.59
   1  -3 -16   -0.60    0.75
   1   3 -16    0.05    0.43
   1   3 -16   -0.38    0.44
   1   3 -16    0.26    0.73
   1  -3  16    0.92    0.54
  -1  -3 -16    0.44    0.79
  -1  -3 -16   -0.17    0.67
  -1   3 -16    0.86    0.50
  -1   3 -16    0.71    0.75
  -1   3 -16    0.08    0.47
  -3  -3 -16    1.05    0.75
  -3  -3 -16    1.19    0.93
  -3   3 -16    0.54    0.43
  -3   3 -16    0.64    0.44
  -4  -4  16   15.12    1.71
  -4  -4  16   13.41    1.64
   4  -4 -16   16.06    1.96
   4   4 -16   11.33    1.77
   4   4 -16   15.44    1.76
   4   4 -16   11.18    1.59
  -2  -4  16   -0.24    0.54
   2  -4 -16    1.50    0.80
   2   4 -16    0.05    0.50
   2   4 -16    0.30    0.75
   2   4 -16    0.13    0.56
   0  -4  16   16.32    1.79
   0  -4 -16   18.85    2.20
   0  -4 -16   16.38    2.12
   0   4 -16   18.52    2.09
   0   4 -16   14.75    1.70
   0   4 -16   16.34    1.78
  -2  -4 -16    0.52    0.75
   2  -4  16    1.05    0.55
  -2  -4 -16   -0.15    0.83
  -2   4 -16    0.37    0.50
  -2   4 -16   -0.28    0.45
  -4  -4 -16    4.66    1.07
   4  -4  16    6.41    0.95
  -4   4 -16    6.71    0.95
  -4   4 -16    5.79    0.88
  -3  -5  16    0.83    0.61
  -1  -5  16    0.37    0.55
   1  -5 -16   -0.58    0.76
   1  -5 -16    0.03    0.76
   1   5 -16   -0.49    0.56
   1   5 -16    0.65    0.57
  -1  -5 -16    1.03    0.97
  -1  -5 -16    0.32    0.77
   1  -5  16    0.70    0.56
  -1   5 -16    0.33    0.53
  -1   5 -16    0.38    0.62
   4   0 -17   -0.38    0.38
   2   0 -17    0.19    0.33
   2   0 -17    0.04    0.70
   0   0 -17   -0.22    0.70
  -2   0 -17    0.59    0.72
   3  -1 -17    1.85    0.82
   3  -1 -17    0.60    0.34
  -3  -1  17    0.37    0.71
   3   1 -17    0.70    0.50
   3   1 -17    1.66    0.83
   3   1 -17    0.89    0.49
   1  -1 -17   -0.25    0.78
   1  -1 -17    0.28    0.71
   1   1 -17   -0.23    0.36
   1   1 -17   -0.26    0.73
  -1  -1 -17    0.25    0.67
  -1  -1 -17    0.26    0.83
  -1   1 -17   -0.16    0.66
  -1   1 -17    0.25    0.30
  -3  -1 -17   -0.15    0.78
  -3  -1 -17    0.65    0.73
  -3   1 -17    1.01    0.76
   2  -2 -17    0.96    0.98
   2  -2 -17   -0.07    0.67
  -2  -2  17    0.70    0.66
   2   2 -17    1.47    0.55
   2   2 -17    1.12    0.52
   2   2 -17    1.27    0.80
   0  -2 -17   -0.43    0.73
   0  -2 -17    0.27    0.87
   0   2 -17    1.04    0.47
   0   2 -17   -0.10    0.39
   0   2 -17   -0.29    0.77
  -2  -2 -17   -0.10    0.87
  -2  -2 -17   -0.37    0.65
  -2   2 -17    0.36    0.36
  -2   2 -17   -0.10    0.70
  -1  -3  17    1.16    0.69
   1  -3 -17    0.88    0.84
   1  -3 -17    1.70    0.98
   1   3 -17    0.67    0.84
   1   3 -17    0.79    0.52
   1   3 -17    0.74    0.53
  -1  -3 -17    2.82    0.94
  -1  -3 -17   -0.63    0.84
   1  -3  17    1.10    0.69
  -1   3 -17    0.70    0.51
  -1   3 -17    0.72    0.76
  -1   3 -17    0.65    0.47
   0  -4  17    0.23    0.59
   0  -4 -17    0.83    0.85
   0  -4 -17    0.10    0.86
   0   4 -17    0.41    0.52
   0   0   0    0.00    0.00
;
_shelx_hkl_checksum   82612

